7
45.98382000
C      -0.962000      0.055500      0.029800     -0.409281
C       0.498000     -0.028700     -0.015400     -0.036096
C       1.700900     -0.098100     -0.052600     -0.246872
H      -1.394000     -0.963700     -0.045000      0.169087
H      -1.323500      0.673100     -0.818000      0.169046
H      -1.276500      0.520800      0.986500      0.169009
H       2.757000     -0.159000     -0.085300      0.185108
CC#C
