13
30.89217000
C       2.696000      0.459300     -0.185800     -0.395906
C       1.315400     -0.011800     -0.076300     -0.093811
C       0.177400     -0.399500      0.014000     -0.114245
C      -1.207100     -0.871400      0.123800     -0.213880
C      -2.155600      0.300700      0.341500     -0.424691
H       3.388500     -0.404700     -0.116400      0.164811
H       2.836900      0.968600     -1.161400      0.164469
H       2.910200      1.171700      0.637300      0.164558
H      -1.483500     -1.406400     -0.809100      0.154764
H      -1.283700     -1.576600      0.978100      0.154765
H      -2.099000      1.008200     -0.513700      0.148449
H      -1.898400      0.837400      1.280000      0.148444
H      -3.197300     -0.075400      0.422100      0.142272
CC#CCC
