16
26.40608000
C      -2.294300      0.992300     -0.915200     -0.424407
C      -1.971500     -0.483800     -0.717900     -0.214657
C      -0.644100     -0.642900     -0.114800     -0.110188
C       0.447600     -0.771600      0.380600     -0.110198
C       1.775900     -0.925600      0.982800     -0.214643
C       2.490000      0.418800      1.051200     -0.424411
H      -2.292200      1.522900      0.061500      0.148496
H      -3.301400      1.093600     -1.371800      0.142445
H      -1.548800      1.464200     -1.591400      0.148438
H      -2.730900     -0.946400     -0.052500      0.154998
H      -1.989200     -1.003700     -1.699200      0.154877
H       1.664800     -1.341600      2.006500      0.154882
H       2.372500     -1.633900      0.369900      0.154988
H       3.491800      0.283500      1.510400      0.142447
H       2.621000      0.839400      0.030600      0.148481
H       1.908800      1.134800      1.671900      0.148452
CCC#CCC
