16
26.13189000
C      -2.938400      1.085200      0.414500     -0.394867
C      -1.773300      0.228600      0.194500     -0.099875
C      -0.812100     -0.476200      0.013400     -0.107007
C       0.360200     -1.333000     -0.207500     -0.236284
C       1.623600     -0.726600      0.414300     -0.234353
C       2.080700      0.537200     -0.314600     -0.437970
H      -3.382400      0.858500      1.405700      0.164175
H      -2.625900      2.149300      0.383900      0.163989
H      -3.690600      0.897700     -0.379300      0.164549
H       0.164000     -2.321100      0.259900      0.153775
H       0.502800     -1.488300     -1.298200      0.158096
H       2.440700     -1.478200      0.361700      0.132762
H       1.446500     -0.494000      1.487500      0.140319
H       3.019900      0.910600      0.145200      0.140204
H       2.273800      0.316700     -1.386000      0.142442
H       1.310500      1.333400     -0.236400      0.150046
CC#CCCC
