10
41.66825000
C      -1.160300      0.607200      0.093100     -0.424333
C      -0.313400     -0.627700      0.374500     -0.227690
C       1.109200     -0.334600      0.168300     -0.052155
C       2.278500     -0.094600     -0.000900     -0.243461
H      -1.025200      0.937300     -0.959400      0.150246
H      -0.876100      1.435400      0.777500      0.150240
H      -2.232200      0.366100      0.254300      0.144136
H      -0.617000     -1.450800     -0.306200      0.159060
H      -0.468400     -0.954600      1.424300      0.159026
H       3.304900      0.116300     -0.149500      0.184933
CCC#C
