13
36.41596000
C      -1.926900     -0.029700      0.379000     -0.441404
C      -0.540100      0.426700     -0.064600     -0.236099
C       0.540200     -0.544200      0.417700     -0.250401
C       1.866300     -0.091400     -0.016800     -0.055144
C       2.956400      0.280200     -0.373500     -0.242229
H      -2.156700     -1.031500     -0.042500      0.144158
H      -1.981500     -0.076600      1.487600      0.144206
H      -2.689300      0.691500      0.016300      0.144959
H      -0.346100      1.440800      0.349300      0.141569
H      -0.520600      0.489500     -1.175000      0.141548
H       0.530000     -0.604600      1.527000      0.161777
H       0.355300     -1.557200      0.000600      0.161686
H       3.913100      0.606500     -0.686700      0.185375
CCCC#C
