21
qm7 3090 -1988.07
C          1.95950       -1.22750       -1.58520
C          2.96790       -0.18780       -1.13230
C          2.32770        1.18400       -0.95770
O          3.34970        2.10520       -0.58080
C          2.86420        3.41460       -0.27230
C          3.99720        4.15160        0.43300
C          2.45490        4.16540       -1.53490
H          2.44470       -2.20170       -1.70300
H          1.51660       -0.95120       -2.54830
H          1.15100       -1.33640       -0.85450
H          3.78570       -0.12230       -1.85930
H          3.42760       -0.50100       -0.18790
H          1.55730        1.14500       -0.17840
H          1.86950        1.50060       -1.90020
H          2.01450        3.34090        0.41690
H          4.88570        4.21150       -0.20610
H          4.29790        3.61280        1.33870
H          3.69960        5.16650        0.71580
H          3.25250        4.13460       -2.28610
H          2.21640        5.21120       -1.31610
H          1.56950        3.71350       -1.99310
