16
qm7 7088 -1660.31
C          0.84840       -0.25010        0.11530
C          2.33320       -0.06570        0.15640
C          3.03400        1.07310       -0.02410
C          2.41530        2.42970       -0.24840
C          4.55300        1.06340        0.03260
C          5.14860        1.37560       -1.27790
N          5.63260        1.62860       -2.30170
H          0.60450       -1.08600       -0.54860
H          0.30810        0.62320       -0.25490
H          0.47620       -0.49140        1.11550
H          2.87810       -0.99270        0.33730
H          1.34160        2.45240       -0.04920
H          2.57370        2.75680       -1.28080
H          2.87080        3.16720        0.42140
H          4.92420        0.08750        0.36840
H          4.89040        1.79070        0.78060
