15
qm7 1297 -1523.33
C          3.39470       -0.67600        0.18560
C          2.57690        0.36800        0.37580
C          2.64630        1.69060       -0.24680
C          1.62980        2.53320        0.00600
N          3.74260        2.00280       -1.03200
C          4.04300        3.12630       -1.73460
N          5.11080        3.32280       -2.42810
H          3.21310       -1.60480        0.72080
H          4.24020       -0.67490       -0.48960
H          1.75140        0.21500        1.07290
H          0.78710        2.25350        0.63160
H          1.59130        3.53740       -0.39940
H          4.44420        1.27910       -1.06090
H          3.28480        3.92330       -1.69020
H          5.71990        2.50460       -2.38320
