19
qm7 3081 -1851.04
C          1.15420       -0.09880       -0.44750
C          2.51180       -0.28970        0.21950
C          3.38970        0.96800        0.12470
O          2.72150        2.04170        0.78320
C          4.78530        0.86840        0.71670
C          5.64630        2.09050        0.51380
C          5.27700       -0.20220        1.36530
H          0.57060       -1.02270       -0.38320
H          1.26990        0.15670       -1.50530
H          0.57870        0.69510        0.03870
H          3.01720       -1.14010       -0.25340
H          2.33290       -0.54660        1.27110
H          3.48520        1.24280       -0.93380
H          2.77150        1.85640        1.73680
H          5.73840        2.31860       -0.55240
H          6.65810        1.95300        0.91070
H          5.20990        2.95760        1.02080
H          4.70040       -1.10590        1.52810
H          6.29030       -0.20700        1.75830
