20
qm7 1528 -1916.03
C          1.32380       -0.30150       -0.15110
C          2.80730        0.00780       -0.02800
N          3.01170        1.45450       -0.02930
C          4.43190        1.78480        0.06420
C          4.63020        3.28020        0.06110
C          4.16210        4.02020       -1.16320
C          5.22350        3.92260        1.08120
H          1.16320       -1.38450       -0.15080
H          0.91160        0.09960       -1.08370
H          0.75700        0.12310        0.68510
H          3.33560       -0.45210       -0.87040
H          3.19110       -0.43430        0.89820
H          2.53020        1.86890        0.76830
H          4.97690        1.36060       -0.78880
H          4.85930        1.34460        0.97370
H          4.58860        3.57010       -2.06620
H          4.46550        5.07210       -1.14600
H          3.07100        3.99090       -1.23990
H          5.57440        3.39290        1.96160
H          5.37270        4.99860        1.06440
