15
qm7 4165 -1450.19
C          1.05380       -0.00590        0.01200
C          2.54700        0.02690       -0.04030
N          3.26120       -1.05120       -0.11940
O          4.61870       -0.65250       -0.06990
C          4.67190        0.75070       -0.34700
C          3.32120        1.29940        0.07580
N          2.78590        2.35750       -0.78500
H          0.69400       -1.03730       -0.04110
H          0.63870        0.55580       -0.82840
H          0.71430        0.44310        0.94960
H          4.86380        0.87370       -1.41960
H          5.49550        1.21000        0.20730
H          3.31740        1.61000        1.12510
H          2.80880        2.05330       -1.76040
H          3.39540        3.17420       -0.73690
