14
qm7 4796 -1395.04
C          0.20400        0.46630       -0.39690
C          1.53320       -0.15640       -0.11110
N          2.52640        0.56050        0.30050
O          3.63740       -0.28140        0.48580
C          4.74310        0.50420        0.93930
C          5.90720       -0.36650        1.14540
C          6.86130       -1.07690        1.31520
H         -0.05370        0.28510       -1.44340
H          0.22510        1.54170       -0.20420
H         -0.55120       -0.00610        0.23630
H          1.62120       -1.24590       -0.26870
H          4.47170        0.99970        1.87820
H          4.97170        1.26950        0.18930
H          7.70480       -1.71050        1.46480
