11
qm7 357 -1207.02
C          1.00000        0.00000        0.00000
C          2.44400        0.00000        0.00000
C          3.63420        0.00000        0.00000
C          5.07810        0.00000        0.00000
C          5.56010        1.36120        0.00000
N          5.94420        2.44620        0.00000
H          0.60630        1.02010        0.01170
H          0.60620       -0.52010        0.87760
H          0.60640       -0.49960       -0.88880
H          5.45630       -0.53380       -0.87860
H          5.45630       -0.53380        0.87860
