15
qm7 1083 -1418.68
N          2.04330       -0.42600       -1.31150
C          2.42670        0.11920       -0.00570
C          3.26040        1.38860       -0.15950
C          2.53410        2.65960       -0.62290
C          3.08130        3.27700        0.65850
O          3.54090        1.99040        1.13680
H          1.46030       -1.25020       -1.16360
H          2.87750       -0.76270       -1.79250
H          2.99700       -0.63810        0.54260
H          1.51860        0.32680        0.57110
H          4.20440        1.20630       -0.69080
H          1.44330        2.59400       -0.65980
H          2.91200        3.09940       -1.54900
H          3.91600        3.97180        0.52700
H          2.33200        3.71370        1.32410
