13
qm7 5547 -1374.13
N          1.02760        0.04010        0.25450
C          2.39140       -0.00800        0.08850
C          3.14750       -1.10440       -0.04920
C          4.53600       -0.65590       -0.20340
O          5.50080       -1.38010       -0.34940
N          4.53160        0.71260       -0.15900
C          3.22480        1.24780        0.04320
H          0.54480       -0.81610       -0.01100
H          0.58490        0.87460       -0.12410
H          2.85760       -2.13840       -0.05150
H          5.38860        1.24310       -0.22580
H          2.96380        1.89540       -0.79790
H          3.19940        1.80130        0.98550
