17
qm7 5219 -1624.5
C          1.41820       -0.28010       -0.76050
N          2.82230       -0.12000       -0.47260
C          3.33300        1.13460       -0.25600
O          2.63260        2.14220       -0.31980
N          4.68710        1.16960        0.03980
C          5.63150        0.10110       -0.25520
C          5.27840        2.46560        0.32770
H          1.24640       -1.30830       -1.08630
H          1.11350        0.41610       -1.54650
H          0.84420       -0.07790        0.14820
H          3.23740       -0.83850        0.10010
H          5.15090       -0.83920       -0.52810
H          6.26020       -0.06280        0.62510
H          6.25960        0.41540       -1.09500
H          4.53730        3.16950        0.71650
H          5.70350        2.87050       -0.59560
H          6.06860        2.34320        1.07410
