15
qm7 4074 -1445.53
C          0.98450       -0.01790        0.00860
C          2.49870       -0.01960       -0.01550
C          3.10230        1.04910        0.88560
O          4.40480        0.59010        1.29140
N          4.36130       -0.80460        1.16060
C          3.17220       -1.19120        0.62040
N          2.70610       -2.39160        0.66220
H          0.58480       -0.78230       -0.66520
H          0.59210        0.95190       -0.31290
H          0.59750       -0.23010        1.01080
H          2.87840        0.07480       -1.03960
H          2.50970        1.21640        1.79310
H          3.20890        2.00450        0.36220
H          4.69180       -1.34700        1.95340
H          1.80670       -2.45640        0.17710
