15
qm7 5225 -1422.49
C          1.57370        2.56760        0.40970
N          2.75560        2.36420       -0.07240
N          3.38690        1.29510        0.46770
C          4.73070        1.02510       -0.06980
C          5.77540        1.81240        0.73300
O          6.00460        0.67160        1.61030
C          5.32140       -0.19060        0.65730
H          0.97580        3.41430        0.03810
H          1.10760        1.93120        1.18170
H          3.35590        1.29280        1.49280
H          4.82890        1.02980       -1.15760
H          5.42990        2.69140        1.28570
H          6.68770        2.06680        0.18340
H          6.04370       -0.77310        0.07580
H          4.62070       -0.87260        1.14850
