12
qm7 621 -1304.97
C          0.93180        0.02440       -0.00790
C          2.41250       -0.00950       -0.00090
C          3.27750        1.06610        0.00280
O          4.56900        0.64900        0.00890
C          4.54420       -0.70700        0.00900
C          3.24690       -1.16280        0.00310
H          0.55710        1.05230        0.00220
H          0.53430       -0.49070        0.87180
H          0.54340       -0.47030       -0.90320
H          3.13630        2.13840        0.00190
H          5.50980       -1.19260        0.01350
H          2.93850       -2.19900        0.00180
