17
qm7 1573 -1662.14
C          1.86070       -0.64720       -0.01200
C          3.34540       -0.33230        0.03500
N          3.52140        1.10670       -0.17660
C          4.75480        1.47070       -0.13100
N          5.16310        2.75790       -0.29820
C          6.43000        3.26940       -0.27220
C          6.77560        4.54760       -0.44420
H          1.69080       -1.71590        0.14970
H          1.43380       -0.37360       -0.98250
H          1.31860       -0.09130        0.76010
H          3.86070       -0.90220       -0.74730
H          3.74720       -0.63170        1.01020
H          5.58440        0.76220        0.04850
H          4.40990        3.41720       -0.46390
H          7.20160        2.52370       -0.09010
H          6.03740        5.32090       -0.62810
H          7.81810        4.84800       -0.40400
