17
qm7 1621 -1747.29
C          3.01710       -1.16370       -0.51370
C          2.44220        0.06820        0.16610
C          3.42690        1.19800        0.17560
C          3.54010        2.12240       -1.00670
C          2.93440        2.62290        0.28080
C          3.68400        3.54950        1.07750
C          4.30950        4.32620        1.74580
H          2.28980       -1.98120       -0.50060
H          3.92510       -1.50480       -0.00560
H          3.27650       -0.95160       -1.55620
H          2.17650       -0.17920        1.20000
H          1.51580        0.36050       -0.34240
H          4.33910        0.93660        0.70240
H          2.87580        1.97440       -1.85050
H          4.53040        2.46580       -1.28570
H          1.85940        2.78020        0.27910
H          4.86540        5.01460        2.33830
