12
qm7 7048 -1306.74
C          0.86040        0.00220       -0.02840
C          2.05970       -0.00260       -0.03280
C          3.59290       -0.00840       -0.03160
C          4.79200       -0.01400       -0.01940
C          6.22310       -0.02280        0.01440
C          6.97460       -0.77660       -1.05270
N          6.94550        0.67950       -1.04460
H         -0.20480        0.00780       -0.02290
H          6.67500        0.02440        1.00030
H          6.41840       -1.25540       -1.84950
H          7.91230       -1.24850       -0.79010
H          7.81700        1.06650       -0.68210
