21
qm7 4051 -2064.84
C          2.09360       -0.31340       -1.50890
C          2.41650        0.07630       -0.07410
C          3.12840        1.42530        0.02670
C          2.28920        2.61700       -0.42780
C          3.03290        3.81260        0.15180
C          3.66180        3.31520        1.45190
C          3.47300        1.79920        1.46840
H          1.64210       -1.31040       -1.53540
H          2.99920       -0.33520       -2.12300
H          1.38480        0.38580       -1.96230
H          3.05380       -0.70000        0.36670
H          1.48760        0.09110        0.50910
H          4.05520        1.39220       -0.56230
H          1.27640        2.56570       -0.00930
H          2.20500        2.68380       -1.51690
H          3.82210        4.13270       -0.53890
H          2.37000        4.66770        0.31430
H          4.72480        3.57910        1.48450
H          3.18500        3.77190        2.32580
H          4.36880        1.28090        1.82500
H          2.64990        1.54150        2.14630
