19
qm7 4895 -1740.29
C          2.98310       -1.24390       -0.81580
C          2.62720       -0.17380        0.20670
O          3.00850       -0.63810        1.50830
C          3.27110        1.21300       -0.08190
N          2.87710        2.16180        0.99070
C          4.81950        1.16870       -0.15940
N          5.43410        0.77600        1.12210
H          2.76000       -0.91210       -1.83380
H          2.41090       -2.15660       -0.61580
H          4.03780       -1.52920       -0.75340
H          1.53590       -0.06110        0.22140
H          3.97620       -0.47050        1.57710
H          2.89130        1.59370       -1.03730
H          3.01420        1.66270        1.87690
H          1.86430        2.28800        0.94890
H          5.19810        2.16020       -0.43560
H          5.14660        0.47780       -0.94230
H          5.20660        1.52150        1.78890
H          6.44910        0.82590        1.01640
