14
qm7 3811 -1399.93
C         -1.00140        0.00010       -1.29640
C         -0.55700        0.97860       -0.12950
O         -1.37270        0.00010        0.72770
C         -0.55690       -0.97870       -0.12960
C          0.92480       -0.78760        0.23930
N          1.87730       -0.00010       -0.51150
C          0.92530        0.78710        0.23930
H         -2.06640        0.00020       -1.54690
H         -0.39640        0.00010       -2.20420
H         -0.97760        1.98510       -0.12310
H         -0.97790       -1.98500       -0.12330
H          1.19410       -1.26810        1.17060
H          1.67940       -0.00010       -1.51180
H          1.19440        1.26760        1.17080
