12
qm7 7074 -1347.07
C          1.69980       -0.59370        1.08250
C          2.43790       -0.09150        0.08320
C          3.13710        1.23470        0.12710
C          4.58690        1.03390        0.02180
C          5.77440        0.87190       -0.06140
C          7.29210        0.66230       -0.16720
N          8.43830        0.50680       -0.24850
H          1.21440       -1.56020        0.98210
H          1.56470       -0.06210        2.01950
H          2.53430       -0.66680       -0.83600
H          2.90190        1.77450        1.05150
H          2.78070        1.85230       -0.70480
