14
qm7 5280 -1471.43
C          3.03420       -1.14520        0.51070
O          2.31330        0.06050        0.29700
C          3.09430        1.15670        0.18230
C          2.54120        2.39710       -0.02680
N          3.56310        3.30640       -0.10130
C          4.76150        2.65860        0.05810
C          4.49980        1.31630        0.23690
H          2.30890       -1.96100        0.58810
H          3.59770       -1.10840        1.44930
H          3.69640       -1.36530       -0.33360
H          1.51050        2.70690       -0.12830
H          3.45000        4.30080       -0.25080
H          5.69390        3.20580        0.03070
H          5.24980        0.55220        0.38830
