14
qm7 4064 -1384.49
C          0.86980        0.01900       -0.03330
C          2.39100       -0.00510       -0.09090
C          3.00810       -0.03410        1.30030
O          2.81560       -1.14140       -0.82490
C          3.42450       -0.58190       -1.88400
N          3.49060        0.69650       -1.94780
O          2.84740        1.16340       -0.78240
H          0.44750        0.04470       -1.04530
H          0.50500        0.90780        0.49160
H          0.47670       -0.87730        0.45810
H          4.10270       -0.04420        1.23650
H          2.70770       -0.93250        1.84950
H          2.72650        0.85200        1.87880
H          3.81820       -1.30190       -2.61270
