13
qm7 6076 -1347.37
O          1.39730        0.18570        0.78090
C          2.41820       -0.07490        0.16760
N          2.81600       -1.30860       -0.29110
C          4.04420       -1.27500       -1.04990
C          4.50070        0.15630       -0.96920
N          3.71720        1.22780       -1.57920
C          3.47670        0.91140       -0.16380
H          2.18880       -2.09870       -0.23480
H          4.75780       -1.95930       -0.58330
H          3.84090       -1.58800       -2.07780
H          5.55580        0.30860       -0.80370
H          4.25590        2.09150       -1.65290
H          3.79240        1.61710        0.59010
