14
qm7 523 -1388.77
N          1.16650       -0.06140        0.41830
C          2.36620       -0.01590       -0.03040
C          3.19510        1.24190        0.00300
C          4.40910        0.82010       -0.82670
C          4.48120       -0.69820       -0.65760
N          3.08330       -1.06160       -0.53160
H          0.79930       -1.00720        0.29030
H          3.47020        1.46050        1.03950
H          2.66140        2.09080       -0.43020
H          4.23210        1.06570       -1.88150
H          5.32880        1.32260       -0.51490
H          4.95190       -1.18710       -1.51490
H          5.02320       -0.96600        0.25580
H          2.85910       -1.99450       -0.20930
