15
qm7 6939 -1498.52
C          2.25630       -0.96860       -0.79840
C          2.03960        0.24480       -0.27380
C          3.05490        1.27180       -0.04540
C          3.49370        2.13260       -1.18590
N          2.61850        2.67550       -0.13830
C          3.18520        3.55650        0.74560
N          2.59120        4.57750        1.26100
H          1.43880       -1.67120       -0.92760
H          3.24710       -1.28580       -1.10820
H          1.02250        0.49800        0.02150
H          3.75990        1.06410        0.75300
H          2.99430        2.05160       -2.14230
H          4.50330        2.52090       -1.20040
H          4.23550        3.34600        1.01340
H          1.63620        4.59150        0.88390
