14
qm7 1463 -1534.34
C          2.67620       -1.18130        0.29580
C          2.23700        0.07600        0.14760
N          3.01130        1.23700        0.08590
C          2.50870        2.51720       -0.06850
C          3.54760        3.42070       -0.08870
C          4.73980        2.68370        0.05780
C          4.38720        1.35590        0.16230
H          1.97120       -2.00670        0.32980
H          3.72810       -1.43020        0.38660
H          1.16740        0.24820        0.06290
H          1.44210        2.67690       -0.15180
H          3.45150        4.49330       -0.19730
H          5.74950        3.07290        0.08490
H          5.01030        0.48190        0.28550
