16
qm7 802 -1486.3
C          0.68530        0.01770       -0.55290
C          2.19040       -0.15080       -0.48470
O          2.75870        1.08120       -0.04730
C          4.17190        0.99150        0.09120
O          4.56610        0.13940        1.16100
C          4.20110        0.67970        2.42410
H          0.20340       -0.90860       -0.87760
H          0.41780        0.81880       -1.24940
H          0.28540        0.29990        0.42650
H          2.58190       -0.40760       -1.47520
H          2.43690       -0.95380        0.21850
H          4.57020        1.99940        0.25290
H          4.61480        0.61310       -0.83680
H          4.53000       -0.01570        3.20090
H          3.11570        0.79380        2.50200
H          4.69490        1.64220        2.58780
