14
qm7 250 -1353.02
C          0.66570        1.23740       -0.19780
N         -0.78490        1.37990        0.02290
C         -1.39580        0.05970       -0.21780
C         -0.33570       -0.90560        0.21040
N          0.75340       -1.30160       -0.68220
C          0.95240       -0.16960        0.22300
H          0.91660        1.39240       -1.25250
H          1.21270        1.96300        0.40970
H         -1.16700        2.05970       -0.63090
H         -2.30780       -0.04780        0.37540
H         -1.64150       -0.06870       -1.27770
H         -0.59680       -1.54340        1.04200
H          1.22530       -2.13370       -0.32440
H          1.62200       -0.27610        1.06380
