15
qm7 3690 -1574.87
O          0.55860        1.21800        1.02000
C          1.54140        1.16490        0.29160
C          2.77160        1.91410        0.60710
C          3.83740        1.85310       -0.20410
C          5.10880        2.54930        0.01760
C          5.71720        3.31490       -1.12850
C          5.13260        4.05520        0.03840
H          1.55730        0.55970       -0.62980
H          2.75870        2.50760        1.51330
H          3.79310        1.23340       -1.09830
H          5.79550        2.03220        0.68220
H          5.18750        3.36740       -2.07320
H          6.79680        3.30110       -1.23090
H          5.81670        4.53990        0.72690
H          4.21090        4.60330       -0.12110
