13
qm7 2502 -1411.69
C          1.05270       -0.00250        0.04620
C          2.39240       -0.01770        0.05250
C          3.27770        1.17240        0.08600
O          4.51170        0.74100       -0.48230
C          4.53200       -0.61870       -0.58370
O          5.49550       -1.25120       -0.98950
C          3.24010       -1.22960       -0.11120
H          0.47700       -0.92040       -0.03270
H          0.49610        0.92740        0.11730
H          3.46700        1.50840        1.11020
H          2.88550        2.00280       -0.50820
H          2.84750       -1.91080       -0.86930
H          3.41080       -1.73150        0.84510
