12
qm7 5968 -1323.21
O          1.22900       -0.15260       -0.43410
C          2.41480        0.07530       -0.26950
C          2.93900        1.36260        0.25390
C          4.27080        1.27610        0.14060
C          4.72820       -0.00160       -0.39520
C          4.42140       -1.26620        0.33790
N          3.50450       -0.73570       -0.61680
H          2.32190        2.17050        0.59980
H          4.95450        2.06730        0.41900
H          5.38490       -0.00110       -1.25520
H          4.89210       -2.18520        0.01690
H          4.08760       -1.23830        1.36690
