18
qm7 1633 -1760.52
C          0.89370        0.03630        0.32950
N          2.30140        0.18370       -0.02290
C          2.98780        1.08120        0.93090
C          4.08030        0.00860        1.13440
C          3.08680       -0.96870        0.46910
C          5.41080        0.21790        0.48640
C          5.55370        0.52350       -0.80870
H          0.43820       -0.75410       -0.27670
H          0.35520        0.96450        0.11000
H          0.72850       -0.20930        1.38560
H          2.43750        1.31390        1.85220
H          3.31550        2.03010        0.49290
H          4.23610       -0.22320        2.19700
H          3.49090       -1.60430       -0.32620
H          2.57910       -1.62270        1.19030
H          6.29030        0.11180        1.11490
H          4.70260        0.63900       -1.47380
H          6.54060        0.66680       -1.23850
