12
qm7 5614 -1328.72
N          1.00000        0.00000        0.00000
C          2.15100        0.00000        0.00000
C          3.55700        0.00000        0.00000
C          4.31210       -1.09780       -0.01820
C          5.73630       -0.69970       -0.01430
C          5.62040        0.79720       -0.27760
O          4.26650        1.20030        0.01170
H          3.95300       -2.11640       -0.01870
H          6.19140       -0.90540        0.95990
H          6.32260       -1.19840       -0.79140
H          5.82730        1.03130       -1.32830
H          6.31200        1.37550        0.34420
