13
qm7 2639 -1425.39
C          1.00000        0.00000        0.00000
C          2.19020        0.00000        0.00000
C          3.59620        0.00000        0.00000
C          4.37020       -1.07530       -0.09010
O          5.73050       -0.84290       -0.10410
C          5.81780        0.58840       -0.26940
C          4.46230        1.19730        0.08180
H         -0.06520       -0.00260        0.00030
H          4.08630       -2.11370       -0.13650
H          6.08240        0.79340       -1.31500
H          6.61840        0.97900        0.36770
H          4.18780        1.99070       -0.62010
H          4.46470        1.60800        1.09750
