16
qm7 3924 -1632.68
C          0.99230       -0.01390        0.03320
C          2.50730        0.01860        0.01900
C          3.10330        1.16540        0.84170
C          4.46900        0.63450        1.23710
N          4.24430       -0.77230        1.37170
C          3.13070       -1.19810        0.67430
O          2.76840       -2.35630        0.57300
H          0.61820       -0.84930       -0.56780
H          0.57960        0.91330       -0.37610
H          0.60450       -0.14440        1.04910
H          2.87680        0.06520       -1.01260
H          2.50130        1.34710        1.74160
H          3.16380        2.10330        0.28140
H          5.21280        0.78990        0.44970
H          4.83240        1.05050        2.17950
H          4.86500       -1.43900        1.81430
