17
qm7 4587 -1618.81
C          0.83990       -0.04490        0.16150
C          2.35630        0.06200        0.04290
C          3.06310       -0.79860        1.08660
O          2.72290       -0.41310       -1.25870
C          2.79490        1.54270        0.15850
N          3.34080        2.14700       -0.93710
N          2.65380        2.24380        1.23710
H          0.34730        0.57520       -0.59610
H          0.48360        0.27840        1.14460
H          0.50600       -1.07430       -0.00910
H          2.77110       -0.52900        2.10630
H          4.15070       -0.68830        1.00860
H          2.84220       -1.86030        0.93080
H          3.69270       -0.32360       -1.31360
H          2.98060        1.80290       -1.82300
H          3.32110        3.15830       -0.85720
H          2.22870        1.68770        1.98530
