15
qm7 3293 -1538.53
C          6.63270       -0.09860        1.25290
C          5.13760       -0.20910        1.48750
O          4.42210        0.07230        0.27610
C          4.16110        1.38250        0.04380
O          4.47760        2.32860        0.74560
C          3.41650        1.47640       -1.22990
C          3.03290        2.66420       -1.71530
H          7.18780       -0.37550        2.15350
H          6.91160        0.92150        0.97080
H          6.94230       -0.75260        0.43120
H          4.81020        0.44460        2.30430
H          4.88580       -1.23480        1.77630
H          3.19520        0.55290       -1.75050
H          3.25570        3.59060       -1.19240
H          2.48630        2.73250       -2.64950
