14
qm7 6188 -1442.18
O          1.17410       -0.53070        0.02480
C          2.37470       -0.29280       -0.00430
C          2.87810        1.09290       -0.03170
C          4.19530        1.33830       -0.07720
C          4.80380        2.66750       -0.10500
C          4.99740        3.41560        1.18900
N          6.12210        2.78870        0.50610
H          3.13340       -1.09260       -0.01320
H          2.13320        1.87900       -0.00960
H          4.89360        0.50260       -0.09920
H          4.64450        3.24140       -1.01250
H          4.69140        2.95280        2.11940
H          4.95840        4.49750        1.17320
H          6.68510        3.48600        0.01590
