14
qm7 6972 -1465.07
C          1.99470       -0.59040       -1.20420
C          2.11310        0.34020       -0.24730
C          3.24610        1.25070       -0.06640
N          3.55140        2.18750       -1.14150
C          2.98930        2.73460        0.09000
C          3.85000        3.49700        0.94480
C          4.56910        4.13820        1.66070
H          1.12230       -1.23370       -1.25480
H          2.77150       -0.73050       -1.95030
H          1.31030        0.42240        0.48380
H          4.10690        0.82440        0.43970
H          2.83800        2.14470       -1.86860
H          1.96610        3.08900        0.01510
H          5.21470        4.70730        2.28850
