14
qm7 5964 -1453.71
O          0.87440       -0.03080        0.14980
C          2.31580       -0.00570        0.00580
C          3.04460        1.05930        0.87900
C          4.10290       -0.00290        1.22630
C          3.07740       -1.08220        0.83580
C          2.67240        0.02830       -1.40980
N          2.99000        0.05570       -2.52670
H          0.70610       -0.05320        1.10670
H          2.46170        1.39840        1.74390
H          3.43010        1.94190        0.35920
H          4.98370        0.02370        0.57460
H          4.43390       -0.01880        2.26780
H          3.48940       -1.93090        0.28120
H          2.50580       -1.47350        1.68610
