16
qm7 5149 -1549.52
C          1.06690       -0.33310       -0.38410
N          2.40230       -0.36040        0.19190
C          3.02010       -1.67230        0.31270
C          3.08250        0.83980        0.34350
O          2.57870        1.93670        0.07990
C          4.52090        0.79230        0.86830
O          5.09270        2.09200        0.97220
H          0.60750        0.65500       -0.29740
H          0.43550       -1.05890        0.13660
H          1.13840       -0.60040       -1.44200
H          2.32410       -2.35040        0.81570
H          3.94790       -1.64380        0.88530
H          3.23480       -2.04810       -0.69220
H          5.14340        0.20950        0.18340
H          4.53070        0.34260        1.86610
H          4.39260        2.71040        0.67500
