15
qm7 455 -1465.22
C          1.03390        0.08470       -0.24090
N          2.45370       -0.03320        0.07520
C          3.18190       -0.89700       -0.84390
C          3.32020        0.60860       -0.90990
C          4.54480        1.22730       -0.40220
C          5.71830        1.29090       -1.04660
H          0.64630        1.02770        0.15840
H          0.48270       -0.73010        0.24020
H          0.80460        0.05560       -1.31330
H          2.63630       -1.39930       -1.63310
H          3.98560       -1.47700       -0.40590
H          2.85010        1.12950       -1.73790
H          4.48030        1.67760        0.58720
H          5.84480        0.86120       -2.03410
H          6.57560        1.77300       -0.58870
