18
qm7 1525 -1757.72
C          1.17170       -0.13090        0.06330
C          2.66930       -0.36710       -0.06550
N          3.39300        0.67040        0.66640
C          4.84800        0.51290        0.57890
C          5.49920        1.80970        1.06100
C          5.31240       -0.61650        1.40490
C          5.68970       -1.53810        2.07900
H          0.62070       -0.89200       -0.49850
H          0.88920        0.85040       -0.33270
H          0.84990       -0.18530        1.10880
H          2.94080       -0.34030       -1.12690
H          2.90240       -1.36530        0.32090
H          3.11750        0.66130        1.64780
H          5.14600        0.35880       -0.46550
H          5.24640        2.02970        2.10530
H          5.18050        2.66080        0.44860
H          6.59140        1.74410        0.99560
H          6.02260       -2.35440        2.67660
