14
qm7 3953 -1379.28
C          0.86430        0.12520        0.11780
C          2.37280        0.03010        0.06210
C          3.17950        1.06510        0.88410
C          3.92800       -0.17690        1.40710
O          5.02640       -0.41650        1.85020
N          2.88910       -0.98550        1.00840
O          3.33450       -2.16470        0.36800
H          0.40420       -0.75890       -0.33610
H          0.51690        1.00230       -0.43780
H          0.49460        0.21020        1.14530
H          2.75250       -0.11340       -0.95830
H          2.63590        1.60730        1.66310
H          3.79070        1.75170        0.29470
H          3.17420       -2.82460        1.06750
