17
qm7 1426 -1665.73
C          0.98170       -0.86500        0.14350
C          2.47220       -0.57260        0.22280
C          2.76000        0.91620        0.02190
N          4.20140        1.15300        0.12440
C          4.54670        2.57470       -0.05210
C          4.39110        3.07520       -1.43430
N          4.26720        3.45520       -2.52480
H          0.79740       -1.93500        0.28210
H          0.57570       -0.57380       -0.83060
H          0.43370       -0.32260        0.92070
H          2.99230       -1.16330       -0.54120
H          2.84910       -0.90100        1.19910
H          2.23210        1.49400        0.78990
H          2.38150        1.22780       -0.95840
H          4.69140        0.59910       -0.57960
H          5.59550        2.69570        0.24220
H          3.96420        3.19180        0.64200
