13
qm7 3533 -1423.51
O          1.10200       -0.00100        0.53830
C          2.26950       -0.01020        0.21060
C          3.31010        1.08840       -0.05680
C          4.21010       -0.01820       -0.67860
C          3.27930       -1.12500       -0.10410
C          4.29760        0.01150       -2.12800
C          4.36160        0.03610       -3.32590
H          3.70410        1.53370        0.86190
H          2.96530        1.87750       -0.72990
H          5.20750       -0.04180       -0.22050
H          2.91320       -1.87470       -0.81010
H          3.66030       -1.61980        0.79450
H          4.41280        0.05800       -4.39110
