19
qm7 2358 -1846.75
C          0.93150        0.00560        0.07020
C          2.44580        0.02740        0.01930
C          3.15440        1.04990        0.94160
C          4.23330       -0.02800        1.22450
C          5.49020        0.01350        0.36540
O          6.31570        1.09320        0.78770
C          3.18080       -1.08590        0.80570
H          0.54060       -0.85040       -0.48850
H          0.51890        0.91570       -0.37600
H          0.56270       -0.06450        1.09840
H          2.79630        0.09790       -1.02060
H          2.57930        1.32740        1.83300
H          3.49410        1.96530        0.44920
H          4.50230       -0.10000        2.28560
H          5.26930        0.13770       -0.69890
H          6.06540       -0.90980        0.48750
H          5.83520        1.91820        0.60580
H          3.54630       -1.92270        0.20360
H          2.61340       -1.48860        1.65320
