15
qm7 3121 -1540.99
C          2.01460       -0.83320        0.11230
C          3.42430       -0.27040        0.06610
C          3.43400        1.24090        0.04550
O          2.43540        1.94960        0.06220
C          4.80570        1.89830        0.00260
C          4.82850        3.39810        0.00290
O          5.81200        1.20160       -0.03100
H          2.04110       -1.92720        0.13300
H          1.43780       -0.52140       -0.76490
H          1.48140       -0.48680        1.00400
H          3.93030       -0.63370       -0.83440
H          3.97860       -0.60890        0.94760
H          4.31860        3.77720       -0.88630
H          5.86540        3.74580       -0.01370
H          4.34900        3.77660        0.90920
