16
qm7 6921 -1651.87
C          1.07370       -0.14730       -0.36000
C          2.40250        0.00460       -0.32260
C          3.09070        1.26070       -0.19870
C          4.41700        1.40570       -0.14060
C          4.78600        2.83560        0.00450
N          3.53130        3.59430       -0.14270
C          2.43580        2.60040       -0.10040
H          0.63850       -1.13740       -0.45350
H          0.38550        0.68810       -0.29670
H          3.02470       -0.88680       -0.38730
H          5.14290        0.60670       -0.17000
H          5.22560        3.02280        0.98920
H          5.50560        3.13740       -0.76320
H          3.52940        4.01070       -1.07270
H          1.74510        2.77910       -0.93140
H          1.88770        2.70100        0.84260
