13
qm7 5985 -1351.87
O          0.89530       -0.16730        0.00690
C          2.12270       -0.07710       -0.00440
C          2.80520        1.26010       -0.05550
C          4.31460        1.23120       -0.03560
C          4.91610       -0.13480       -0.01180
N          4.26100       -1.24820        0.01610
N          2.90800       -1.19310        0.02270
H          2.44220        1.84960        0.79490
H          2.46350        1.76840       -0.96550
H          4.69420        1.77260        0.83920
H          4.71650        1.75400       -0.91160
H          6.01830       -0.18560       -0.01380
H          2.42380       -2.08640        0.05170
