16
qm7 3988 -1593.15
C          0.97570        0.02040        0.20560
C          2.46770       -0.04510       -0.08450
C          2.79110       -0.02320       -1.57150
N          3.23610        0.98070        0.66180
C          4.12460        0.00400        1.32060
C          3.24340       -1.10120        0.72630
O          3.18800       -2.30660        0.84540
H          0.76780        0.01570        1.28180
H          0.45820       -0.84050       -0.23190
H          0.53000        0.92780       -0.21710
H          3.87160       -0.04840       -1.75550
H          2.39290        0.87870       -2.04960
H          2.35240       -0.89110       -2.07590
H          2.67780        1.52300        1.32310
H          5.14960        0.00100        0.94150
H          4.12180        0.04490        2.41190
