16
qm7 518 -1484.15
N          1.02790        0.01990        0.07670
C          2.48010       -0.00840       -0.05150
C          3.10040        1.04250        0.89890
C          4.15520       -0.03800        1.25630
C          3.06750       -1.08250        0.90700
N          3.66210       -2.17310        0.13780
H          0.56560       -0.77150       -0.36870
H          0.59920        0.85630       -0.31570
H          2.86570        0.01870       -1.07640
H          2.48260        1.34050        1.75580
H          3.49520        1.94210        0.41920
H          5.03300       -0.01530        0.59800
H          4.49470       -0.03530        2.29580
H          2.44920       -1.39050        1.75770
H          4.22580       -1.87870       -0.65790
H          2.96920       -2.82220       -0.23160
