13
qm7 6377 -1268.21
O          2.10600       -0.41370        1.52690
N          2.61590        0.22640        0.38560
C          2.79990       -0.64640       -0.76550
C          4.00790       -1.47560       -0.62080
C          4.99960       -2.14350       -0.50540
C          3.42620        1.29280        0.66330
N          3.45120        1.95410        1.76900
H          2.90790       -0.76310        1.96500
H          2.86860       -0.04020       -1.67590
H          1.91830       -1.28740       -0.88040
H          5.88390       -2.73090       -0.40430
H          4.10460        1.56740       -0.16250
H          2.71400        1.55170        2.36240
