19
qm7 3251 -1799.27
C          1.01630       -0.23550        0.14430
C          2.53250       -0.34150        0.24630
O          3.00050       -1.29060       -0.71240
C          3.20990        1.01450        0.01140
C          4.74560        0.98110        0.06670
C          5.29970        0.51520        1.40530
O          5.26210        0.14710       -0.96560
H          0.61550        0.45120        0.89660
H          0.55490       -1.21880        0.28720
H          0.71000        0.11470       -0.84770
H          2.78880       -0.72650        1.23760
H          2.64200       -1.03210       -1.58250
H          2.83620        1.74270        0.74110
H          2.92620        1.37160       -0.98780
H          5.11700        1.99280       -0.12920
H          5.08210       -0.54250        1.58800
H          4.89860        1.10990        2.23210
H          6.39190        0.60660        1.41140
H          4.80750       -0.71770       -0.88190
