17
qm7 4544 -1565.88
C          0.85600       -0.10540       -0.07780
C          2.37980       -0.14530       -0.12770
C          2.90440       -0.89020       -1.36990
N          2.51170       -2.30170       -1.42720
O          2.83490        1.21720       -0.17040
N          4.12380        1.29300        0.38200
C          4.49860        2.52700        0.37640
H          0.52060        0.48720        0.78030
H          0.42630       -1.10750        0.00750
H          0.44730        0.37830       -0.97160
H          2.74610       -0.62670        0.78920
H          3.99840       -0.82620       -1.40020
H          2.55050       -0.38440       -2.27620
H          2.90720       -2.78970       -0.62360
H          2.93650       -2.72790       -2.25010
H          5.48700        2.80260        0.77410
H          3.86890        3.34470       -0.01390
