18
qm7 4887 -1721.17
C          0.93610       -0.17510        0.08300
C          2.45620       -0.04680       -0.07290
O          3.07660       -0.75760        1.00860
C          2.95290       -0.68110       -1.40390
N          2.64330       -2.11640       -1.51140
C          2.85370        1.41580       -0.01700
C          3.72730        1.98530        0.82480
H          0.40200        0.28450       -0.75580
H          0.59510        0.30510        1.00850
H          0.63040       -1.22460        0.15780
H          2.69850       -0.39700        1.82820
H          4.04370       -0.57740       -1.46530
H          2.51970       -0.16240       -2.26670
H          2.94160       -2.54700       -0.63140
H          3.22750       -2.52710       -2.23770
H          2.37260        2.05640       -0.75590
H          4.26580        1.41210        1.57380
H          3.93950        3.04900        0.76840
