14
qm7 876 -1347.5
O          1.95910       -0.34580       -1.26460
C          2.37900        0.11460        0.01690
C          3.19550        1.38590       -0.15290
C          2.44660        2.64490       -0.60860
C          3.04180        3.28440        0.64080
O          3.49050        1.99890        1.13660
H          1.46900       -1.17320       -1.11740
H          2.98280       -0.66850        0.48550
H          1.48990        0.28930        0.63120
H          4.12870        1.20900       -0.70280
H          1.35530        2.57260       -0.60050
H          2.78470        3.07100       -1.55620
H          3.88630        3.95850        0.46920
H          2.32040        3.75160        1.31630
