13
qm7 3406 -1375.19
C          1.00230       -0.06410        0.01480
O          2.42140       -0.00700        0.01430
C          2.89400        1.33860        0.00000
C          4.33800        1.33860        0.00000
C          5.52830        1.33860        0.00000
C          7.06030        1.33970       -0.00000
C          8.25940        1.34010        0.00000
H          0.69970       -1.11470        0.02600
H          0.59880        0.40550       -0.88750
H          0.59870        0.42470        0.90680
H          2.51450        1.86480        0.88310
H          2.51450        1.84600       -0.89420
H          9.32520        1.33800        0.00000
