17
qm7 2737 -1693.64
C          1.88250       -0.18970        1.33770
C          2.30340        0.27500       -0.04970
C          2.99380        1.62250       -0.02090
C          2.28920        2.74980       -0.22540
C          4.45690        1.61040        0.17020
C          5.01140        2.02360        1.51280
O          5.12610        0.67880        1.03700
H          1.38770       -1.16400        1.27360
H          1.17940        0.51540        1.79380
H          2.74200       -0.29360        2.00710
H          1.41550        0.31890       -0.69320
H          2.96650       -0.47130       -0.50420
H          1.21550        2.72840       -0.38500
H          2.77240        3.72190       -0.23320
H          5.01180        1.91360       -0.71270
H          4.33060        2.20060        2.33560
H          5.90930        2.62700        1.53060
