15
qm7 2490 -1522.68
C          1.05530       -0.03000        0.15240
C          2.54740       -0.00220        0.05500
C          3.23070        1.08010       -0.35010
O          4.59910        1.17040       -0.43330
C          5.24110        0.04970        0.19330
C          4.50970       -1.24590       -0.12670
O          3.16570       -1.20060        0.37500
H          0.66500       -0.98670       -0.21030
H          0.59400        0.76250       -0.44680
H          0.74290        0.09740        1.19370
H          2.76960        2.01050       -0.65670
H          6.27230        0.00790       -0.17010
H          5.26490        0.23080        1.27510
H          5.01280       -2.09750        0.34090
H          4.46940       -1.42290       -1.20890
