16
qm7 4900 -1555.97
C          1.00750       -1.29940        1.43640
C          1.79510       -0.87650        0.20390
O          1.08450       -1.36630       -0.93330
C          1.93980        0.65650        0.14000
N          3.08210        1.11800       -0.64260
C          3.25290        0.82350       -1.96830
O          2.54990        0.06830       -2.62280
H          1.52200       -1.00800        2.35700
H          0.86510       -2.38550        1.44600
H          0.00790       -0.85090        1.43550
H          2.77840       -1.35940        0.22150
H          1.53420       -1.00010       -1.72800
H          2.09180        1.06720        1.14390
H          1.04390        1.11270       -0.29640
H          3.66920        1.83950       -0.24450
H          4.12930        1.34020       -2.39730
