17
qm7 2335 -1721.5
C          1.13180        0.18140       -0.30320
C          2.54380       -0.06940        0.22700
C          3.15610       -1.39010       -0.26740
C          3.77560       -1.26270       -1.62670
C          4.00860       -0.05570       -2.16290
C          3.69010        1.22490       -1.44930
O          3.41740        1.03180       -0.05790
H          0.76880        1.15920        0.03160
H          0.44110       -0.58800        0.05570
H          1.09400        0.18420       -1.39690
H          2.47000       -0.12220        1.31990
H          2.39910       -2.18130       -0.27220
H          3.94900       -1.70230        0.42320
H          4.04610       -2.16850       -2.16220
H          4.45320        0.02390       -3.15060
H          4.54820        1.90060       -1.51520
H          2.84080        1.72650       -1.92360
