13
qm7 5251 -1299.9
C          1.34420       -0.04080        0.04850
N          2.26850        0.77130        0.83770
N          3.08250        1.55490       -0.01190
C          4.36930        1.14840       -0.31900
O          4.87170        0.08920        0.03680
C          5.13630        2.08090       -1.11520
C          5.77540        2.85520       -1.77500
H          0.72410       -0.64360        0.71890
H          1.88070       -0.72110       -0.62150
H          0.67710        0.59160       -0.54630
H          2.89000        0.13040        1.35010
H          2.77320        2.48860       -0.26860
H          6.35440        3.53280       -2.35840
