12
qm7 5546 -1278.66
N          1.04440       -0.02660       -0.11430
C          2.37290        0.10480       -0.06330
C          3.20370        1.20130       -0.02950
C          4.50990        0.67680        0.01850
O          5.67540        1.33750        0.05830
C          4.40400       -0.69050        0.01610
O          3.09090       -1.04700       -0.03290
H          0.43560        0.74690        0.12500
H          0.65250       -0.94450        0.07060
H          2.89360        2.23430       -0.04430
H          5.51610        2.29690        0.03670
H          5.11590       -1.50230        0.04220
