10
qm7 2003 -1159.08
N          0.90890        0.02100       -0.00700
C          2.06910        0.02120       -0.00360
C          3.49260        0.02230        0.00070
C          4.32190        1.12030        0.00400
N          5.59500        0.62540        0.00740
N          5.64420       -0.71870        0.00660
C          4.35830       -1.08420        0.00250
H          4.12860        2.18390        0.00410
H          6.47180        1.13910        0.01040
H          4.11290       -2.13930        0.00100
