12
qm7 910 -1225.26
O          2.39350       -0.66410        1.39640
C          2.58770       -0.14180        0.09410
C          3.05580        1.26440        0.24900
C          4.19890        1.73090       -0.27220
C          4.60030        3.13480       -0.06020
O          5.62830        3.58170       -0.55380
H          2.13240       -1.59450        1.29090
H          1.63490       -0.16580       -0.44300
H          3.31440       -0.76610       -0.43510
H          2.40940        1.91310        0.83480
H          4.87860        1.12130       -0.85500
H          3.92630        3.75190        0.55660
