11
qm7 6029 -1191.46
O          1.07780       -0.02220        0.45160
C          2.26280       -0.04270        0.18830
C          3.31520        1.03670       -0.08480
N          4.24520       -0.05340       -0.43050
C          3.32950       -1.12990        0.03640
C          3.01930       -2.10210       -0.98610
N          2.80900       -2.87180       -1.83030
H          3.59960        1.60640        0.80360
H          3.07060        1.71120       -0.90810
H          4.45990       -0.09850       -1.43030
H          3.62760       -1.56400        0.99650
