15
qm7 978 -1409.78
C          2.82890       -0.84720        1.28290
C          2.58630       -0.08180       -0.01000
C          3.09700        1.35390        0.05140
C          4.60040        1.39990        0.07130
N          5.23220        1.95750        1.05200
O          6.60780        1.86840        0.81100
H          2.39430       -1.84960        1.21390
H          2.36840       -0.33640        2.13460
H          3.89870       -0.95900        1.48510
H          1.50860       -0.06470       -0.20980
H          3.06020       -0.61900       -0.83990
H          2.69230        1.87870        0.92330
H          2.77300        1.88940       -0.84780
H          5.13180        0.94920       -0.78610
H          6.98460        2.32430        1.58700
