12
qm7 6973 -1311.31
C          1.03310       -0.02830       -0.11400
C          2.23050        0.01170       -0.04150
C          3.65990        0.06690        0.05010
N          4.45870       -0.65310       -0.93810
C          4.43160        0.80360       -1.02170
C          5.60870        1.52970       -0.64400
C          6.58880        2.14610       -0.32740
H         -0.03060       -0.06120       -0.17210
H          4.07210        0.06050        1.05450
H          3.85560       -1.06090       -1.65180
H          3.87860        1.21160       -1.86200
H          7.46090        2.68920       -0.04510
