15
qm7 5030 -1471.92
C          2.32920       -0.53640       -1.50770
N          2.22250        0.15630       -0.23010
C          3.24010        1.22640       -0.16670
C          2.60940        2.56540       -0.63370
N          3.12960        3.17000        0.60620
C          3.33150        1.96010        1.20410
O          3.45250        1.67720        2.37080
H          1.56040       -1.31280       -1.56700
H          3.30510       -1.01990       -1.62200
H          2.17070        0.14890       -2.34690
H          2.33040       -0.52150        0.52740
H          4.22730        0.98190       -0.57520
H          1.51700        2.62300       -0.68640
H          3.05380        3.00010       -1.53280
H          2.69750        3.88320        1.17850
