16
qm7 4825 -1589.11
C          0.97140       -0.11570       -0.10900
C          2.45940       -0.25130        0.08880
O          2.97700       -1.35570        0.25160
C          3.26040        1.03600        0.04480
C          4.73230        0.82240        0.22840
C          5.66220        0.78720       -0.95650
N          5.64050        1.93570       -0.05350
H          0.58630        0.69110        0.52050
H          0.47500       -1.04590        0.18180
H          0.76110        0.09520       -1.16020
H          2.89330        1.68080        0.85100
H          3.05110        1.52840       -0.91190
H          4.97070        0.22070        1.09850
H          5.26190        0.95810       -1.94800
H          6.53380        0.14570       -0.91030
H          6.44540        1.91400        0.57650
