16
qm7 5560 -1566.12
N          0.88530        0.12760        0.33360
C          2.30460        0.03400       -0.03650
C          3.13190        0.95480        0.88480
O          3.39400       -0.15390        1.79760
C          3.00030       -1.09140        0.75260
C          2.50860        0.14440       -1.49060
C          2.26110       -0.88270       -2.31510
H          0.73040        0.04090        1.33910
H          0.30560       -0.58630       -0.10280
H          2.59960        1.77280        1.38060
H          4.07120        1.33930        0.47090
H          3.88610       -1.53780        0.28630
H          2.36110       -1.89020        1.14210
H          2.85320        1.09300       -1.89290
H          1.90360       -1.84240       -1.95610
H          2.40750       -0.77520       -3.38590
