9
4.49500000
C      -1.121700     -0.084600     -0.007600     -0.456168
C       0.251000      0.477900     -0.209500     -0.080849
C       1.337900     -0.207900      0.151200     -0.353267
H      -1.298000     -0.276200      1.072000      0.158184
H      -1.880200      0.639200     -0.372200      0.147799
H      -1.229700     -1.033800     -0.574000      0.158128
H       0.363600      1.460900     -0.657300      0.136803
H       2.324400      0.217000     -0.003400      0.144044
H       1.252600     -1.192700      0.600900      0.145326
CC=C
