26
14.56992000
C      -3.792500      0.711100      0.190900     -0.443907
C      -3.713200     -0.777400      0.009700     -0.132581
C      -2.585000     -1.487500      0.186700     -0.179774
C      -1.262000     -0.879600      0.575700     -0.274198
C      -0.618700     -0.177100     -0.593700     -0.166857
C       0.548800      0.480500     -0.499400     -0.167031
C       1.329500      0.586900      0.786700     -0.274222
C       2.619200      1.339100      0.581600     -0.179950
C       3.703900      0.817500     -0.018300     -0.132443
C       3.763800     -0.586600     -0.547000     -0.444053
H      -3.529500      0.985000      1.234000      0.154691
H      -4.828100      1.055200     -0.012400      0.144997
H      -3.107000      1.222900     -0.515800      0.160878
H      -4.618700     -1.306700     -0.272300      0.138948
H      -2.627300     -2.563900      0.046400      0.141664
H      -1.402300     -0.177600      1.425000      0.155379
H      -0.587900     -1.695200      0.914100      0.149243
H      -1.113000     -0.200200     -1.561900      0.151580
H       0.938700      0.956200     -1.396000      0.151540
H       0.715900      1.140100      1.529400      0.149232
H       1.540500     -0.421800      1.201000      0.155386
H       2.674000      2.361200      0.945300      0.141725
H       4.588000      1.440200     -0.120800      0.139039
H       2.994700     -0.736100     -1.332900      0.160931
H       3.605300     -1.313600      0.276800      0.154717
H       4.763000     -0.773100     -0.992900      0.145067
C/C=C\C/C=C\C/C=C\C
