19
5.21672000
C      -2.446000      0.304800      0.780100     -0.444076
C      -2.236200     -0.958900     -0.003200     -0.131957
C      -1.023000     -1.475100     -0.268300     -0.181971
C       0.272900     -0.846300      0.175100     -0.275404
C       0.617200      0.352100     -0.673600     -0.157550
C       1.711900      1.102300     -0.467100     -0.161752
C       2.701900      0.828300      0.627600     -0.439484
H      -2.033400      0.193800      1.804600      0.154525
H      -1.958100      1.160800      0.269600      0.159690
H      -3.532800      0.516000      0.859900      0.145774
H      -3.113400     -1.485800     -0.367500      0.139780
H      -0.970600     -2.402700     -0.831200      0.142156
H       0.209800     -0.561200      1.246700      0.155751
H       1.081900     -1.600300      0.069400      0.150506
H      -0.042200      0.628500     -1.492700      0.148858
H       1.892800      1.949300     -1.122600      0.142367
H       3.143100     -0.182500      0.500100      0.153447
H       3.518700      1.578900      0.587700      0.146844
H       2.205400      0.898000      1.618100      0.152496
C/C=C\C/C=C\C
