16
8.73414000
C       2.739800      0.325900      0.875900     -0.333842
C       1.675300     -0.121100      0.215500     -0.098138
C       0.328300      0.422700      0.488100     -0.267120
C      -0.786400      0.013200     -0.144800      0.094094
C      -2.098900      0.648600      0.226200     -0.464420
C      -0.753200     -1.056800     -1.206700     -0.461846
H       2.650100      1.098600      1.629600      0.144331
H       3.719100     -0.083300      0.663900      0.142392
H       1.821500     -0.894400     -0.527400      0.139659
H       0.239800      1.196800      1.243500      0.155266
H      -2.308400      0.476200      1.303300      0.160571
H      -2.941300      0.229000     -0.362100      0.152850
H      -2.053900      1.742000      0.035900      0.160594
H      -0.361100     -2.003100     -0.777800      0.161323
H      -0.105700     -0.733500     -2.049000      0.161327
H      -1.765200     -1.260900     -1.613800      0.152959
C=CC=C(C)C
