16
8.82329000
C       2.541900      0.133200      0.275900     -0.447956
C       1.842600     -0.011500     -1.041500     -0.114886
C       0.520200     -0.178500     -1.166600     -0.189045
C      -0.407700     -0.239800     -0.019200     -0.184597
C      -1.717900     -0.408100     -0.208300     -0.117427
C      -2.660800     -0.470900      0.950000     -0.450281
H       2.382000     -0.774800      0.894800      0.157807
H       2.162200      1.027600      0.813500      0.157862
H       3.632000      0.258500      0.107600      0.147802
H       2.444900      0.021300     -1.941400      0.139842
H       0.115200     -0.273000     -2.167700      0.146154
H      -0.030200     -0.148200      0.992200      0.149195
H      -2.119000     -0.502300     -1.210900      0.141996
H      -2.613300      0.475400      1.529400      0.157120
H      -2.394000     -1.322800      1.610500      0.157276
H      -3.698200     -0.614000      0.581700      0.149139
CC=CC=CC
