22
7.40130000
C       3.473900     -0.891000     -0.421600     -0.347677
C       2.637200     -1.085500      0.602000     -0.102779
C       1.607300     -0.060000      0.989000     -0.290532
C       0.480300      0.015000     -0.048200     -0.265006
C      -0.591200      1.029700      0.377100     -0.262655
C      -1.707500      1.166400     -0.669100     -0.289197
C      -2.517700     -0.094700     -0.812300     -0.099859
C      -3.341900     -0.515400      0.151600     -0.347174
H       4.215800     -1.643900     -0.667000      0.144085
H       3.428600      0.016300     -1.016300      0.144590
H       2.723200     -1.994500      1.190100      0.139690
H       1.178800     -0.345400      1.974200      0.151064
H       2.095500      0.933100      1.100100      0.147095
H       0.900300      0.317900     -1.032400      0.141307
H       0.018900     -0.991200     -0.155900      0.138516
H      -0.114400      2.025800      0.507400      0.136499
H      -1.026000      0.733700      1.356900      0.142399
H      -2.381500      2.002200     -0.380400      0.143940
H      -1.260800      1.426100     -1.653200      0.148548
H      -2.449900     -0.661900     -1.735800      0.138972
H      -3.921300     -1.422300      0.012600      0.143740
H      -3.447600      0.039500      1.078800      0.144435
C=CCCCCC=C
