17
30.33982000
C      -3.575500     -0.896100      1.254200     -0.310273
C      -2.494200     -0.127000      1.166000     -0.122620
C      -1.318700     -0.551800      0.388800     -0.171238
C      -0.235700      0.223300      0.303100     -0.138020
C       0.940200     -0.201200     -0.474200     -0.204239
C       2.023400      0.573100     -0.560500     -0.095583
C       3.216700      0.140900     -1.350000     -0.453865
H      -4.429200     -0.564700      1.831000      0.143403
H      -3.622700     -1.857200      0.757000      0.144872
H      -2.487100      0.827900      1.678700      0.144678
H      -1.337900     -1.509800     -0.119800      0.151382
H      -0.217100      1.181300      0.811900      0.147368
H       0.925200     -1.158400     -0.984300      0.152504
H       2.052400      1.532100     -0.055900      0.142179
H       4.004800      0.920900     -1.295700      0.149879
H       2.933800     -0.009700     -2.413300      0.159924
H       3.621600     -0.807200     -0.937100      0.159649
C=CC=CC=CC
