19
4.96444000
C      -3.310200      0.200800      0.856700     -0.442707
C      -2.306500     -0.500900     -0.004800     -0.157128
C      -1.062300     -0.024900     -0.141700     -0.158807
C      -0.059500     -0.736200     -1.008800     -0.286402
C       1.268000     -0.031200     -0.999000     -0.178110
C       2.057900     -0.042300      0.084100     -0.133634
C       3.381100      0.657900      0.080100     -0.447116
H      -3.479100      1.231400      0.479100      0.154367
H      -2.944700      0.245900      1.904300      0.154694
H      -4.273000     -0.351400      0.835800      0.146187
H      -2.602100     -1.409800     -0.522300      0.141263
H      -0.777300      0.886000      0.380800      0.150992
H      -0.442200     -0.764100     -2.051700      0.152735
H       0.071600     -1.783300     -0.658200      0.157351
H       1.591700      0.484400     -1.899500      0.144139
H       1.741000     -0.562900      0.983900      0.144261
H       4.035100      0.227700     -0.707500      0.154843
H       3.875200      0.530700      1.066000      0.147525
H       3.235400      1.742000     -0.111300      0.155547
CC=CCC=CC
