10
27.16852000
C      -1.806400      0.205000     -0.127500     -0.304554
C      -0.616600     -0.388300     -0.101600     -0.132333
C       0.616600      0.388200      0.101600     -0.132342
C       1.806400     -0.205000      0.127500     -0.304544
H      -1.902100      1.276300      0.000100      0.145220
H      -2.701400     -0.384500     -0.278300      0.144831
H      -0.562900     -1.462800     -0.233200      0.146821
H       0.562900      1.462800      0.233200      0.146824
H       1.902100     -1.276300     -0.000100      0.145226
H       2.701400      0.384500      0.278300      0.144852
C=CC=C
