17
32.54344000
C      -1.219600     -2.062700     -0.092200     -0.295387
C      -1.626000     -0.801800      0.054300     -0.137218
C      -0.706900      0.361400     -0.026700      0.002609
C      -1.223300      1.569300     -0.276600     -0.330653
C       0.758800      0.220700      0.187100      0.053421
C       1.726700      0.925000     -0.723500     -0.453352
C       1.224200     -0.444000      1.249700     -0.362438
H      -0.183400     -2.309500     -0.281600      0.149372
H      -1.939700     -2.869200     -0.044100      0.145145
H      -2.686900     -0.623700      0.188600      0.150601
H      -0.594400      2.449700     -0.322900      0.151238
H      -2.287200      1.701800     -0.432300      0.149628
H       1.264100      1.104800     -1.717000      0.158514
H       2.638600      0.309100     -0.878600      0.155217
H       2.016900      1.899400     -0.277300      0.161460
H       0.549700     -0.913000      1.955300      0.152347
H       2.288300     -0.517300      1.437800      0.149496
C=CC(=C)C(C)=C
