16
17.18982000
C      -2.234900      1.064200     -0.920300     -0.336428
C      -1.933300     -0.121300     -0.382300     -0.110775
C      -0.517800     -0.625700     -0.321700     -0.281328
C       0.309900      0.165700      0.698600     -0.280558
C       1.701700     -0.391200      0.819300     -0.110068
C       2.602600     -0.250600     -0.157600     -0.337925
H      -1.459700      1.708600     -1.323800      0.145719
H      -3.267800      1.394200     -0.962400      0.144216
H      -2.734400     -0.751200     -0.006700      0.139272
H      -0.058500     -0.558000     -1.332100      0.150723
H      -0.536600     -1.696700     -0.023300      0.147547
H      -0.182800      0.104600      1.693500      0.148883
H       0.365500      1.237500      0.407400      0.151235
H       1.990900     -0.893900      1.737600      0.139487
H       3.603500     -0.651200     -0.034800      0.144389
H       2.351700      0.265200     -1.079500      0.145610
C=CCCC=C
