9
100.66002000
C      -1.122900      0.085500      1.762400     -0.408732
C      -0.333500      0.025400      0.532100      0.004997
C       0.316900     -0.024100     -0.481600     -0.113184
C       1.078600     -0.082100     -1.668800     -0.020808
C       1.728900     -0.131700     -2.682400     -0.176839
H      -2.144000     -0.301500      1.566200      0.174766
H      -1.186800      1.137100      2.110100      0.174703
H      -0.637000     -0.533500      2.544500      0.174759
H       2.299900     -0.175100     -3.572400      0.190339
CC#CC#C
