6
112.71086000
C      -0.021100     -1.807100     -1.001400     -0.146540
C      -0.007800     -0.667500     -0.609200     -0.045375
C       0.007800      0.667500     -0.149900     -0.045370
C       0.021100      1.807100      0.242200     -0.146554
H      -0.032700     -2.807800     -1.345700      0.191913
H       0.032700      2.807800      0.586600      0.191925
C#CC#C
