13
30.89159000
C       2.727200      0.216200      0.321400     -0.395919
C       1.312700     -0.130600      0.184300     -0.093821
C       0.146700     -0.415800      0.071300     -0.114273
C      -1.271700     -0.763100     -0.066200     -0.213821
C      -2.129700      0.495500     -0.096500     -0.424685
H       3.129100      0.527600     -0.664700      0.164471
H       2.835100      1.050600      1.044600      0.164612
H       3.290700     -0.666200      0.688400      0.164789
H      -1.574500     -1.400100      0.791400      0.154736
H      -1.416000     -1.335300     -1.006900      0.154722
H      -2.005000      1.071400      0.845900      0.148448
H      -3.198500      0.213200     -0.200800      0.142263
H      -1.846000      1.136400     -0.959000      0.148479
CC#CCC
