25
36.01221000
C      -3.058400     -1.696200     -0.124400     -0.133711
C      -1.967000     -2.411200     -0.616300     -0.165464
C      -0.696800     -1.832500     -0.623000     -0.135519
C      -0.502500     -0.528300     -0.135900     -0.063018
C       0.868200      0.031500     -0.136300     -0.001262
C       1.478800      0.425900      1.066400     -0.158516
C       2.777900      0.943100      1.060000     -0.140245
C       3.478600      1.062400     -0.143200     -0.156788
C       2.883000      0.660500     -1.341900     -0.139100
C       1.584000      0.142800     -1.340100     -0.160706
C      -1.618000      0.211200      0.334300      0.047183
C      -2.886400     -0.394700      0.350700     -0.183452
C      -1.482000      1.625900      0.834000     -0.456943
H      -4.040900     -2.150100     -0.113900      0.146349
H      -2.103900     -3.419000     -0.986600      0.150509
H       0.142000     -2.409000     -0.994500      0.155547
H       0.954700      0.322000      2.008100      0.156066
H       3.243200      1.247000      1.988800      0.148522
H       4.484400      1.462200     -0.146200      0.147098
H       3.428000      0.749800     -2.272700      0.148865
H       1.132900     -0.163000     -2.276200      0.157204
H      -3.748200      0.145000      0.724100      0.152075
H      -2.450800      2.165900      0.770300      0.156597
H      -0.748500      2.191000      0.221300      0.165677
H      -1.152400      1.618000      1.893400      0.163033
c1ccc(-c2ccccc2)c(c1)C
