31
29.38478000
C       2.942200      0.867000     -1.196700     -0.181331
C       4.037700      1.633200     -0.786600     -0.134569
C       4.692700      1.334300      0.411400     -0.166460
C       4.250600      0.271000      1.203400     -0.134584
C       3.155500     -0.497900      0.797100     -0.181345
C       2.500600     -0.212300     -0.412800      0.021758
C       1.299600     -1.015800     -0.834400     -0.290645
C       0.015000     -0.397400     -0.273600     -0.247262
C      -1.216000     -1.206100     -0.695600     -0.290601
C      -2.470400     -0.588400     -0.138500      0.021744
C      -2.938700     -0.959000      1.133400     -0.181325
C      -4.085700     -0.359800      1.663500     -0.134558
C      -4.766200      0.618600      0.933400     -0.166502
C      -4.298600      1.002500     -0.326500     -0.134543
C      -3.152000      0.405900     -0.860400     -0.181344
H       2.437500      1.114900     -2.122300      0.151553
H       4.376700      2.461100     -1.395800      0.147155
H       5.539600      1.929200      0.728000      0.148440
H       4.754400      0.044600      2.134200      0.147136
H       2.816900     -1.313100      1.424500      0.151576
H       1.244300     -1.054100     -1.944700      0.148979
H       1.401800     -2.062400     -0.471700      0.149027
H      -0.084600      0.646100     -0.647300      0.146958
H       0.074200     -0.370200      0.837300      0.146882
H      -1.119700     -2.253200     -0.332600      0.149002
H      -1.277300     -1.244900     -1.805600      0.148974
H      -2.415100     -1.709000      1.713200      0.151580
H      -4.445000     -0.651400      2.641900      0.147131
H      -5.653000      1.082300      1.345700      0.148456
H      -4.822500      1.765100     -0.888100      0.147144
H      -2.794500      0.719100     -1.833600      0.151572
c1ccccc1CCCc2ccccc2
