34
23.75954000
C      -1.862600     -0.161900      0.828500     -0.170366
C      -2.622100      0.794900      1.508200     -0.136935
C      -2.861800      2.041400      0.932500     -0.163187
C      -2.342200      2.336500     -0.326200     -0.141041
C      -1.582400      1.386400     -1.013000     -0.181792
C      -1.325400      0.113100     -0.452900     -0.000456
C      -0.459700     -0.902500     -1.230700      0.100610
C      -1.107900     -1.156400     -2.612700     -0.459139
C      -0.364000     -2.282000     -0.527800     -0.463881
C       0.977300     -0.337500     -1.453500     -0.311091
C       1.724200     -0.039900     -0.171200      0.023943
C       2.563600     -1.010400      0.403700     -0.181845
C       3.240000     -0.741700      1.597500     -0.139423
C       3.089200      0.497800      2.224200     -0.163963
C       2.265300      1.472400      1.655700     -0.135072
C       1.587700      1.208100      0.461700     -0.173408
H      -1.708400     -1.108400      1.323500      0.155276
H      -3.025100      0.568100      2.486900      0.148072
H      -3.449000      2.779600      1.463200      0.147316
H      -2.524100      3.306500     -0.770700      0.146085
H      -1.182400      1.659500     -1.979600      0.149422
H      -0.552500     -1.940300     -3.172200      0.147422
H      -2.160000     -1.494900     -2.492400      0.152088
H      -1.106400     -0.243500     -3.243700      0.145319
H       0.091300     -2.197900      0.480300      0.156513
H       0.266600     -2.981100     -1.118900      0.148064
H      -1.371300     -2.740100     -0.422400      0.149538
H       0.935200      0.589500     -2.065700      0.151905
H       1.569700     -1.059900     -2.058600      0.152977
H       2.689000     -1.976600     -0.069200      0.149304
H       3.880600     -1.495100      2.037100      0.144622
H       3.613100      0.704100      3.148500      0.147169
H       2.152900      2.434100      2.139200      0.148063
H       0.961700      1.978200      0.030800      0.157890
c1ccccc1C(C)(C)C(c2ccccc2)
