37
15.24720000
C      -2.282600      2.584200     -0.166600     -0.428814
C      -2.072100      1.544600     -1.264500     -0.265742
C      -2.407100      0.154400     -0.768000     -0.004104
C      -3.712100     -0.322300     -0.994000     -0.174693
C      -4.087300     -1.601500     -0.587500     -0.150608
C      -3.167100     -2.427900      0.049500     -0.161342
C      -1.873900     -1.971700      0.302100     -0.157412
C      -1.475800     -0.668400     -0.067300     -0.029342
C      -0.047700     -0.218900      0.238300     -0.086945
C       0.309000     -0.442300      1.719000     -0.446896
C       0.941900     -0.929600     -0.708400     -0.301569
C       2.327800     -0.341900     -0.620500      0.032179
C       2.627300      0.861200     -1.281600     -0.182831
C       3.904200      1.421800     -1.180000     -0.134677
C       4.887900      0.789400     -0.414700     -0.169976
C       4.595700     -0.403600      0.252000     -0.137652
C       3.320100     -0.967900      0.152900     -0.179908
H      -3.349100      2.600100      0.144100      0.146797
H      -1.653300      2.359400      0.719700      0.149297
H      -2.009600      3.589700     -0.550000      0.142688
H      -2.723300      1.809900     -2.126200      0.144775
H      -1.035600      1.593600     -1.657500      0.147178
H      -4.443600      0.298100     -1.497500      0.149754
H      -5.092300     -1.956300     -0.776500      0.147889
H      -3.456200     -3.426900      0.349600      0.148278
H      -1.181200     -2.645500      0.788000      0.151923
H       0.055200      0.871400      0.081700      0.150781
H       0.456500     -1.518500      1.946500      0.146014
H       1.248300      0.094400      1.970900      0.152513
H      -0.495700     -0.040000      2.371100      0.149124
H       0.582800     -0.829400     -1.756800      0.155768
H       0.970200     -2.018900     -0.484900      0.154272
H       1.871200      1.364100     -1.872000      0.151155
H       4.130300      2.347900     -1.692400      0.146089
H       5.875500      1.225300     -0.336100      0.147838
H       5.357000     -0.889900      0.848200      0.146400
H       3.104800     -1.888100      0.681700      0.151800
CCc1ccccc1C(C)Cc2ccccc2
