37
20.48639000
C      -2.594300      0.995500      0.918300     -0.176267
C      -3.477800      2.077700      0.888600     -0.139048
C      -4.004000      2.519900     -0.323300     -0.163422
C      -3.638400      1.888500     -1.510600     -0.139823
C      -2.754600      0.805500     -1.490400     -0.177096
C      -2.231700      0.314500     -0.268200     -0.008626
C      -1.219700     -0.853100     -0.207600      0.091965
C      -1.635700     -1.837500      0.916700     -0.457272
C      -1.187300     -1.656900     -1.534500     -0.459505
C       0.184600     -0.241300      0.082800     -0.279305
C       1.339100     -1.256300      0.180900     -0.285326
C       2.626600     -0.551600      0.517200      0.022355
C       3.442800     -0.039400     -0.505500     -0.181050
C       4.620700      0.645200     -0.190100     -0.133720
C       4.986200      0.831900      1.145900     -0.168765
C       4.172300      0.338100      2.169000     -0.134664
C       2.993600     -0.347200      1.858200     -0.181681
H      -2.186800      0.703700      1.875700      0.152113
H      -3.747900      2.579900      1.808700      0.147184
H      -4.686200      3.360000     -0.343800      0.147761
H      -4.035600      2.243500     -2.453000      0.146504
H      -2.490800      0.368700     -2.441600      0.153055
H      -2.716500     -2.084000      0.833700      0.149146
H      -1.443400     -1.415900      1.924900      0.146192
H      -1.071500     -2.792100      0.853700      0.147555
H      -0.723600     -1.063000     -2.351100      0.147316
H      -2.215000     -1.956200     -1.834500      0.147789
H      -0.596700     -2.591600     -1.431900      0.148683
H       0.144000      0.328200      1.038100      0.146943
H       0.428800      0.491600     -0.718900      0.148071
H       1.463900     -1.794900     -0.782000      0.149794
H       1.124000     -2.013900      0.963500      0.150148
H       3.165800     -0.168700     -1.544500      0.151564
H       5.248200      1.034300     -0.981500      0.146336
H       5.897500      1.363300      1.388300      0.148098
H       4.452800      0.489500      3.203400      0.145932
H       2.366500     -0.716000      2.660500      0.151067
c1ccccc1C(C)(C)CCc2ccccc2
