21
3.23608000
C      -2.067400      0.242700      1.097200     -0.445401
C      -1.378100      0.101200     -0.265100     -0.082119
C      -1.779700     -1.208800     -0.953200     -0.445422
C       0.129200      0.207600     -0.128900      0.007855
C       0.858800     -0.725600      0.634200     -0.173158
C       2.247600     -0.613800      0.750000     -0.138954
C       2.923000      0.426600      0.108300     -0.166244
C       2.210900      1.357900     -0.650900     -0.135726
C       0.821800      1.251100     -0.770300     -0.184635
H      -3.170400      0.257100      0.965200      0.145358
H      -1.763500      1.196000      1.580300      0.147849
H      -1.804000     -0.601100      1.769600      0.146986
H      -1.751200      0.931800     -0.905400      0.138672
H      -1.269900     -1.293700     -1.936800      0.147851
H      -1.509200     -2.088100     -0.331000      0.146980
H      -2.876600     -1.225100     -1.128700      0.145356
H       0.355600     -1.539500      1.139700      0.151116
H       2.800600     -1.334900      1.338000      0.147413
H       3.998200      0.511300      0.199200      0.148870
H       2.735600      2.163700     -1.147700      0.147470
H       0.288800      1.983500     -1.363600      0.149883
CC(C)c1ccccc1
