41
58.09193000
C       0.454700      0.510700     -2.275800     -0.449661
C       0.926800      0.712000     -0.823000     -0.092299
C       2.109400     -0.196500     -0.509100     -0.004185
C       2.091100     -1.567000     -0.840100     -0.163276
C       3.166500     -2.392500     -0.500200     -0.144124
C       4.267100     -1.865800      0.178800     -0.161013
C       4.292200     -0.513000      0.524100     -0.142616
C       3.218600      0.317200      0.188300     -0.176466
C      -0.167000      0.588400      0.289900     -0.153242
C      -1.182300      1.733900      0.343000      0.011723
C      -1.318600      2.474300      1.538000     -0.170282
C      -2.239900      3.520900      1.633600     -0.135358
C      -3.048000      3.843500      0.544300     -0.162705
C      -2.939800      3.116100     -0.640500     -0.139804
C      -2.019900      2.068000     -0.742600     -0.173908
C      -0.806900     -0.794300      0.418000      0.015229
C      -1.854000     -1.227800     -0.421300     -0.167385
C      -2.395900     -2.509100     -0.281800     -0.141753
C      -1.903700     -3.378000      0.692200     -0.159372
C      -0.866800     -2.968200      1.530000     -0.139961
C      -0.322100     -1.688400      1.396500     -0.173859
H       1.330600      0.358000     -2.942900      0.153559
H      -0.052100      1.419700     -2.654700      0.145645
H      -0.209500     -0.368000     -2.382300      0.157620
H       1.297900      1.761800     -0.783100      0.150602
H       1.241900     -2.001500     -1.350900      0.161218
H       3.143600     -3.443300     -0.758800      0.148134
H       5.098000     -2.507300      0.442500      0.145866
H       5.142200     -0.107700      1.057600      0.145167
H       3.251000      1.360200      0.477500      0.151308
H       0.433600      0.718300      1.219400      0.162222
H      -0.711100      2.244600      2.404600      0.153286
H      -2.328300      4.080700      2.555800      0.146688
H      -3.762100      4.653200      0.620000      0.146322
H      -3.574600      3.361000     -1.482400      0.145477
H      -1.990400      1.525600     -1.670600      0.156917
H      -2.257200     -0.595700     -1.192900      0.157685
H      -3.198100     -2.829800     -0.933900      0.146291
H      -2.324200     -4.369900      0.795900      0.145860
H      -0.481700     -3.643700      2.282900      0.147464
H       0.489100     -1.400800      2.053900      0.156986
CC(c1ccccc1)C(c2ccccc2)c3ccccc3
