28
33.77116000
C       3.328700      0.753200     -0.702400     -0.164228
C       3.349800      0.351700      0.636200     -0.137985
C       2.358400     -0.503400      1.127300     -0.182125
C       1.341300     -0.969000      0.277500      0.021798
C       1.322600     -0.554700     -1.065300     -0.172251
C       2.315000      0.301600     -1.551800     -0.134788
C       0.245900     -1.852600      0.818200     -0.278939
C      -0.835300     -1.039800      1.543700     -0.278887
C      -1.561400     -0.110800      0.604200      0.021667
C      -2.583400     -0.601100     -0.225500     -0.182102
C      -3.227000      0.250900     -1.128300     -0.137944
C      -2.850400      1.594100     -1.214400     -0.164224
C      -1.828300      2.087300     -0.398900     -0.134749
C      -1.183200      1.239300      0.506400     -0.172206
H       4.095300      1.417200     -1.080200      0.147767
H       4.132200      0.706700      1.294500      0.145364
H       2.379400     -0.798600      2.169100      0.149521
H       0.535400     -0.886500     -1.731100      0.154977
H       2.295700      0.618500     -2.586500      0.148809
H       0.684500     -2.583100      1.532300      0.149862
H      -0.216300     -2.445700     -0.001500      0.152189
H      -1.565900     -1.742600      2.000100      0.149833
H      -0.377300     -0.467700      2.380600      0.152210
H      -2.876700     -1.642400     -0.175700      0.149535
H      -4.014900     -0.131200     -1.764500      0.145361
H      -3.347800      2.251600     -1.915600      0.147751
H      -1.532700      3.126000     -0.471100      0.148791
H      -0.383700      1.631300      1.122900      0.154993
c1ccc(cc1)CC(c2ccccc2)
