13
43.47419000
C      -1.010100     -1.058000      0.022400     -0.448479
C      -0.540600      0.389800     -0.161200     -0.055999
C      -0.641300      1.125200      1.111500      0.081300
N      -0.720300      1.702900      2.111200     -0.225016
C       0.884900      0.472000     -0.740700     -0.265705
C       1.895800     -0.129900      0.144100      0.105183
N       2.690500     -0.603100      0.839700     -0.232141
H      -0.392200     -1.585400      0.780700      0.170390
H      -0.941500     -1.606500     -0.941200      0.160067
H      -2.070300     -1.075400      0.355100      0.163981
H      -1.228200      0.880000     -0.884100      0.174967
H       1.155200      1.535700     -0.915100      0.185688
H       0.918100     -0.047300     -1.722200      0.185764
CC(C#N)C(C#N)
