15
121.98535000
C      -1.252600      0.161200      0.327400     -0.064119
C      -2.263500      1.182800      0.027900      0.069915
N      -3.060000      1.988900     -0.207700     -0.167939
C      -1.788800     -1.153900     -0.051300      0.065061
N      -2.210000     -2.190000     -0.348900     -0.171444
C       0.052900      0.472600     -0.433100     -0.266337
C       1.218900     -0.462400     -0.051300     -0.064029
C       1.630900     -0.257300      1.344500      0.065187
N       1.954200     -0.096200      2.444100     -0.171496
C       2.372700     -0.206800     -0.922400      0.069963
N       3.281900     -0.005600     -1.609900     -0.168034
H      -1.070000      0.171500      1.422400      0.216098
H      -0.139200      0.391900     -1.528000      0.185523
H       0.353800      1.526400     -0.230000      0.185530
H       0.918800     -1.523000     -0.183900      0.216121
C(C#N)(C#N)CC(C#N)(C#N)
