18
116.36802000
C       2.141000     -0.848000     -0.022100     -0.444437
C       0.953300      0.087600      0.254200      0.118964
C       1.307200      1.441000     -0.210000      0.056208
N       1.585300      2.503600     -0.575100     -0.177487
C       0.730300      0.135000      1.709500      0.049302
N       0.559400      0.171500      2.853900     -0.162577
C      -0.305800     -0.437000     -0.493400     -0.279132
C      -1.577500      0.438600     -0.356900     -0.065656
C      -2.553500      0.068300     -1.390100      0.072719
N      -3.321900     -0.223000     -2.205100     -0.175135
C      -2.216500      0.267900      0.955100      0.059456
N      -2.721800      0.134000      1.987900     -0.158724
H       1.916600     -1.879400      0.328000      0.173826
H       2.362000     -0.891700     -1.111100      0.172465
H       3.055800     -0.493800      0.503200      0.175861
H      -0.535300     -1.474000     -0.156000      0.184580
H      -0.047300     -0.511800     -1.575100      0.183751
H      -1.331400      1.511300     -0.496900      0.216017
CC(C#N)(C#N)CC(C#N)(C#N)
