19
31.14068000
C       2.501200     -0.437800      0.613500     -0.444456
C       1.133300      0.252000      0.588000     -0.069214
C       1.244700      1.498200     -0.189200      0.100041
N       1.333100      2.477400     -0.799900     -0.257962
C       0.056000     -0.682100     -0.014600     -0.286111
C      -1.383400     -0.355000      0.447000     -0.075272
C      -2.292700     -1.422600     -0.001300      0.094245
N      -3.007400     -2.262100     -0.353300     -0.249679
C      -1.890400      0.990400     -0.084900     -0.448029
H       3.270100      0.244600      1.036300      0.159235
H       2.461000     -1.344200      1.254700      0.159226
H       2.809600     -0.737200     -0.411900      0.161413
H       0.863700      0.512300      1.634600      0.169916
H       0.116000     -0.676200     -1.127000      0.165984
H       0.277000     -1.725300      0.307900      0.162811
H      -1.416300     -0.334200      1.557900      0.168569
H      -2.969600      1.117600      0.150100      0.162099
H      -1.351400      1.827600      0.403600      0.161706
H      -1.754700      1.056700     -1.186100      0.165476
CC(C#N)CC(C#N)C
