13
43.47930000
C      -0.730000     -1.189600     -0.438400     -0.448345
C      -0.632300      0.229700      0.132900     -0.056147
C      -0.713800      1.224000     -0.951400      0.081278
N      -0.777900      2.005100     -1.802900     -0.224838
C       0.639400      0.431700      0.979400     -0.265542
C       1.876400      0.266800      0.198600      0.104968
N       2.848900      0.137200     -0.415200     -0.231894
H       0.093400     -1.388400     -1.157800      0.170290
H      -1.699800     -1.322400     -0.964700      0.163962
H      -0.677500     -1.935900      0.382700      0.160021
H      -1.509300      0.388900      0.797000      0.174919
H       0.648700     -0.297900      1.817100      0.185712
H       0.633700      1.450800      1.422700      0.185618
CC(C#N)CC#N
