12
8.43933000
C      -1.594900      0.162700     -0.098300     -0.439951
C      -0.196300      0.226200      0.508600     -0.235482
C       0.854900     -0.295600     -0.473600     -0.266882
C       2.192500     -0.227700      0.125100      0.114128
N       3.247800     -0.174200      0.597000     -0.263622
H      -2.335900      0.546500      0.634300      0.150257
H      -1.646300      0.787200     -1.015700      0.147005
H      -1.857800     -0.886200     -0.353000      0.146992
H      -0.179700     -0.385600      1.437500      0.147408
H       0.031100      1.281500      0.777300      0.147420
H       0.636700     -1.352100     -0.739100      0.176361
H       0.847800      0.317200     -1.400200      0.176365
CCCC#N
