6
18.20876000
C      -0.495500      0.007100     -0.007100     -0.425375
C       0.967400     -0.013900      0.013800      0.133027
N       2.124300     -0.030500      0.030300     -0.263316
H      -0.864700     -0.701000     -0.777200      0.185150
H      -0.884000     -0.293200      0.987800      0.185246
H      -0.847400      1.031400     -0.247600      0.185268
CC#N
