15
125.83103000
C       0.449100      1.633600      0.046800     -0.454341
C       0.466100      0.101900      0.206200      0.134795
C       1.395800     -0.472200     -0.787900      0.043363
N       2.123600     -0.922100     -1.567500     -0.141668
C       0.990400     -0.209000      1.550400      0.042408
N       1.400900     -0.452700      2.604900     -0.145392
C      -0.968100     -0.492600      0.046800     -0.068941
C      -0.993400     -1.953000      0.249700      0.050673
N      -1.012700     -3.099100      0.409800     -0.136843
C      -1.549200     -0.202500     -1.275700      0.064373
N      -2.005700      0.026200     -2.314500     -0.152556
H       1.461700      2.060500      0.221700      0.184385
H      -0.253400      2.094100      0.775300      0.175062
H       0.130600      1.925400     -0.977100      0.183492
H      -1.635600     -0.038500      0.811200      0.221190
CC(C#N)(C#N)C(C#N)(C#N)
