13
46.52712000
C      -1.691200      0.050500      0.117300     -0.444416
C      -0.358200     -0.679900     -0.051600     -0.239142
C       0.845200      0.221400      0.274100     -0.075555
C       2.080100     -0.572400      0.282100      0.080775
N       3.053500     -1.198600      0.289300     -0.198619
C       0.985700      1.299500     -0.715200      0.091442
N       1.095300      2.148900     -1.493700     -0.206434
H      -2.527000     -0.652600     -0.083300      0.158554
H      -1.792600      0.434200      1.154800      0.150851
H      -1.766700      0.897600     -0.596700      0.158625
H      -0.359100     -1.555700      0.634900      0.158551
H      -0.281200     -1.065200     -1.093100      0.160190
H       0.716200      0.672300      1.281200      0.205180
CCC(C#N)(C#N)
