16
36.31901000
C       1.612500     -0.559200      0.339900     -0.266986
C       2.801200      0.151000      0.824900      0.109349
N       3.738900      0.711000      1.207600     -0.246371
C       0.451700      0.422100      0.129000     -0.265876
C      -0.805100     -0.275600     -0.427500     -0.073983
C      -1.374800     -1.201800      0.566400      0.093085
N      -1.822000     -1.929700      1.347100     -0.249076
C      -1.864000      0.756100     -0.825500     -0.443028
H       1.864900     -1.061400     -0.618200      0.178261
H       1.334900     -1.331500      1.087800      0.187020
H       0.779100      1.204100     -0.592500      0.162521
H       0.207700      0.927300      1.091100      0.164256
H      -0.531700     -0.858200     -1.334200      0.170545
H      -2.167400      1.367800      0.052000      0.161577
H      -2.762300      0.246400     -1.236400      0.159476
H      -1.463400      1.431600     -1.611300      0.159230
C(C#N)CC(C#N)C
