18
120.37000000
C       2.233700     -0.507200     -0.162700     -0.445114
C       0.892800      0.145900     -0.524800     -0.255746
C      -0.284800     -0.238800      0.420800      0.105753
C       0.039400      0.144800      1.810700      0.050839
N       0.293100      0.446000      2.899100     -0.153232
C      -0.482300     -1.703200      0.409200      0.050782
N      -0.637500     -2.850200      0.399400     -0.153114
C      -1.618800      0.457300     -0.000400     -0.075545
C      -2.051400      0.070200     -1.355100      0.061211
N      -2.391100     -0.234800     -2.418600     -0.148558
C      -1.527100      1.927300      0.053200      0.061208
N      -1.454900      3.081600      0.096400     -0.148599
H       2.558600     -0.205100      0.854800      0.161105
H       3.009700     -0.178100     -0.885600      0.165523
H       2.161000     -1.613700     -0.213400      0.161120
H       0.646400     -0.142500     -1.570000      0.169206
H       1.039000      1.248100     -0.515400      0.169271
H      -2.425800      0.152300      0.702200      0.223890
CCC(C#N)(C#N)C(C#N)(C#N)
