16
38.50083000
C      -1.719800     -0.832900      0.418500     -0.438532
C      -0.902700     -0.074700     -0.627900     -0.257815
C       0.170000      0.843800     -0.000700     -0.079824
C       0.791000      1.670200     -1.051200      0.078489
N       1.278600      2.319300     -1.876100     -0.225053
C       1.255500      0.085200      0.793700     -0.263370
C       1.970900     -0.907900     -0.023500      0.106739
N       2.533300     -1.688900     -0.666000     -0.235030
H      -1.094000     -1.593600      0.929400      0.147760
H      -2.139100     -0.130300      1.169600      0.146881
H      -2.560600     -1.359400     -0.080500      0.155876
H      -0.436400     -0.803200     -1.326500      0.160428
H      -1.608700      0.548300     -1.221100      0.154455
H      -0.336800      1.542300      0.700400      0.177152
H       1.996500      0.809700      1.195200      0.184891
H       0.802400     -0.428100      1.666800      0.186951
CCC(C#N)CC#N
