31
29.38430000
C       3.058000      0.945600      0.750400     -0.181315
C       4.199900      1.393000      0.078400     -0.134559
C       4.772300      0.610200     -0.928100     -0.166498
C       4.201400     -0.619600     -1.267300     -0.134551
C       3.059500     -1.070800     -0.597900     -0.181315
C       2.486400     -0.296000      0.424700      0.021779
C       1.236800     -0.763000      1.121800     -0.290647
C      -0.009400     -0.268300      0.380500     -0.247373
C      -1.289300     -0.737000      1.080100     -0.290645
C      -2.505400     -0.244500      0.342200      0.021791
C      -3.061600      1.008700      0.649300     -0.181342
C      -4.171300      1.479300     -0.059900     -0.134548
C      -4.726200      0.708100     -1.085000     -0.166508
C      -4.169800     -0.533300     -1.405500     -0.134532
C      -3.060200     -1.007700     -0.698900     -0.181314
H       2.618600      1.565900      1.521800      0.151566
H       4.639000      2.348200      0.335600      0.147137
H       5.655300      0.958600     -1.448100      0.148469
H       4.641600     -1.221800     -2.051500      0.147124
H       2.621300     -2.021100     -0.876600      0.151550
H       1.226400     -0.384500      2.167800      0.149003
H       1.227500     -1.874300      1.171700      0.149011
H       0.002700      0.843900      0.342000      0.146993
H       0.003800     -0.657600     -0.662000      0.146879
H      -1.304600     -1.848100      1.129800      0.149006
H      -1.305700     -0.358400      2.125900      0.149001
H      -2.635300      1.620100      1.435000      0.151566
H      -4.598800      2.443500      0.183000      0.147127
H      -5.584200      1.074400     -1.633700      0.148458
H      -4.596200     -1.126600     -2.204000      0.147120
H      -2.632700     -1.967000     -0.963400      0.151568
c1ccccc1CCCc2ccccc2
