41
55.23727000
C       0.851700     -2.467500      0.864800     -0.444740
C       0.748400     -1.174400      0.038900     -0.097561
C       2.070600     -0.422900      0.087500      0.009819
C       2.576400      0.083100      1.301400     -0.169007
C       3.783100      0.788500      1.326200     -0.138646
C       4.498100      0.996100      0.144800     -0.163352
C       4.008700      0.497400     -1.064300     -0.136532
C       2.802800     -0.209200     -1.095200     -0.175903
C      -0.438600     -0.280800      0.517200     -0.150023
C      -0.496100      1.078600     -0.167100      0.012950
C      -0.335500      1.218400     -1.561000     -0.167746
C      -0.413000      2.478600     -2.160700     -0.132402
C      -0.663900      3.611000     -1.383700     -0.160983
C      -0.841900      3.485200     -0.004800     -0.131381
C      -0.764200      2.227700      0.600600     -0.172256
C      -1.787400     -0.974200      0.396100      0.018749
C      -2.614400     -1.096800      1.529100     -0.175639
C      -3.862600     -1.718800      1.433600     -0.136521
C      -4.303600     -2.220300      0.207500     -0.163621
C      -3.498100     -2.098500     -0.926300     -0.136135
C      -2.248900     -1.477400     -0.837000     -0.168243
H      -0.052900     -3.094300      0.716900      0.154129
H       0.952900     -2.244300      1.948000      0.147463
H       1.732600     -3.060600      0.537400      0.150391
H       0.559100     -1.495700     -1.007200      0.145329
H       2.038900     -0.064400      2.228700      0.150339
H       4.163600      1.175300      2.262700      0.146566
H       5.431600      1.543400      0.166300      0.148111
H       4.563500      0.659500     -1.979400      0.146864
H       2.439200     -0.583700     -2.043800      0.149240
H      -0.251200     -0.094900      1.598700      0.157929
H      -0.141600      0.361100     -2.189300      0.148650
H      -0.280000      2.576800     -3.230300      0.146617
H      -0.724500      4.585500     -1.850700      0.146695
H      -1.043000      4.362700      0.596000      0.146730
H      -0.913000      2.151600      1.670600      0.150187
H      -2.295100     -0.711100      2.489300      0.150629
H      -4.489300     -1.810400      2.311200      0.146068
H      -5.270600     -2.701100      0.135500      0.147214
H      -3.842700     -2.484600     -1.876900      0.147153
H      -1.649000     -1.394600     -1.731700      0.152866
CC(c1ccccc1)C(c2ccccc2)c3ccccc3
