18
8.48012000
C      -2.114800      0.483800     -1.275300     -0.426349
C      -0.707900      0.006300     -1.619300     -0.272042
C       0.139600     -0.092500     -0.379400      0.025722
C       0.871500      1.019800      0.069600     -0.183445
C       1.634000      0.935500      1.238900     -0.134375
C       1.663800     -0.254200      1.971700     -0.168450
C       0.927900     -1.360700      1.538700     -0.134406
C       0.164000     -1.280800      0.370000     -0.183518
H      -2.076000      1.488900     -0.803200      0.147413
H      -2.604600     -0.229900     -0.578800      0.147359
H      -2.722300      0.549600     -2.202300      0.142991
H      -0.769300     -0.984400     -2.120300      0.146550
H      -0.246900      0.714200     -2.342100      0.146547
H       0.850000      1.950100     -0.484400      0.151068
H       2.199300      1.793700      1.578600      0.147370
H       2.253500     -0.317400      2.877100      0.149146
H       0.946700     -2.279500      2.110500      0.147401
H      -0.408600     -2.142600      0.050000      0.151018
CCc1ccccc1
