15
13.19742000
C       2.208700      0.179000     -0.157600     -0.457622
C       0.715300      0.062100     -0.081000      0.049029
C      -0.072600      1.200700      0.153700     -0.190273
C      -1.462200      1.084800      0.262000     -0.129952
C      -2.071600     -0.168100      0.149500     -0.172939
C      -1.291800     -1.307800     -0.066400     -0.129931
C       0.098100     -1.196000     -0.175200     -0.190300
H       2.503500      1.166300     -0.572600      0.156903
H       2.640000      0.070000      0.859300      0.162450
H       2.630000     -0.609900     -0.816600      0.156867
H       0.387900      2.176100      0.252200      0.151163
H      -2.066300      1.965700      0.436900      0.147064
H      -3.146900     -0.256400      0.234800      0.149305
H      -1.763900     -2.278500     -0.145700      0.147060
H       0.691700     -2.088000     -0.333100      0.151175
Cc1ccccc1
