38
60.46415000
C      -1.445800     -3.484000     -0.056000     -0.159890
C      -1.773800     -2.613300      0.985400     -0.136739
C      -1.364100     -1.277700      0.938600     -0.169133
C      -0.620400     -0.797900     -0.157100      0.012028
C      -0.294900     -1.686000     -1.199100     -0.169712
C      -0.706900     -3.020800     -1.146700     -0.133936
C      -0.147400      0.643700     -0.213900     -0.131214
C      -1.335900      1.593100     -0.240900      0.010725
C      -1.926800      2.094700      0.937900     -0.172884
C      -3.043800      2.932900      0.869700     -0.136287
C      -3.593300      3.270900     -0.368300     -0.163022
C      -3.030400      2.766800     -1.542000     -0.133805
C      -1.913600      1.928500     -1.480300     -0.171414
C       0.869000      0.959000      0.908700     -0.288200
C       2.153500      0.191600      0.716100      0.019121
C       3.147400      0.681500     -0.147700     -0.177448
C       4.319400     -0.050900     -0.360300     -0.140053
C       4.503900     -1.279300      0.280200     -0.162744
C       3.515500     -1.778600      1.132800     -0.137964
C       2.342700     -1.049000      1.349100     -0.168107
H      -1.762900     -4.518100     -0.017100      0.146446
H      -2.343900     -2.974200      1.831700      0.146585
H      -1.622300     -0.623700      1.760100      0.152780
H       0.282200     -1.348500     -2.050900      0.151808
H      -0.451100     -3.697200     -1.952100      0.147365
H       0.404200      0.802900     -1.169200      0.160413
H      -1.534800      1.842400      1.912700      0.151798
H      -3.487100      3.317100      1.779400      0.145986
H      -4.459100      3.918500     -0.417700      0.147248
H      -3.462500      3.021900     -2.501000      0.147410
H      -1.499900      1.537500     -2.401800      0.153232
H       0.446200      0.721100      1.908000      0.153772
H       1.094800      2.048300      0.905500      0.158433
H       3.011500      1.626600     -0.658700      0.151759
H       5.082900      0.331900     -1.025100      0.144884
H       5.410700     -1.846000      0.112800      0.147082
H       3.656500     -2.733000      1.623200      0.147798
H       1.580500     -1.453000      2.003900      0.155879
c1ccc(cc1)C(c2ccccc2)C(c3ccccc3)
