28
35.87694000
C       1.721100     -1.257500     -0.149000     -0.171589
C       2.818000     -1.302900     -1.014800     -0.136127
C       3.484500     -0.127400     -1.365600     -0.163005
C       3.052200      1.098100     -0.855700     -0.132556
C       1.956200      1.149900      0.010500     -0.176686
C       1.285200     -0.028400      0.388600      0.011048
C       0.070600      0.073000      1.297100     -0.121354
C      -0.055700     -1.093800      2.289500     -0.437340
C      -1.196100      0.251500      0.482100      0.011025
C      -1.656800     -0.762200     -0.381300     -0.166631
C      -2.819800     -0.576500     -1.134500     -0.135690
C      -3.533900      0.619700     -1.038200     -0.161875
C      -3.085600      1.633800     -0.189100     -0.135300
C      -1.923100      1.453700      0.566500     -0.178148
H       1.219600     -2.183700      0.092800      0.151766
H       3.148800     -2.251400     -1.418200      0.146531
H       4.332200     -0.165500     -2.037500      0.147841
H       3.563700      2.010100     -1.135200      0.147690
H       1.628300      2.111900      0.384900      0.151348
H       0.213800      0.972800      1.937900      0.152498
H      -0.316700     -2.045600      1.783200      0.148407
H      -0.854900     -0.870600      3.028500      0.150971
H       0.898700     -1.229300      2.841800      0.151716
H      -1.119300     -1.695800     -0.474900      0.153162
H      -3.167100     -1.360900     -1.794500      0.148174
H      -4.433800      0.761500     -1.622600      0.147893
H      -3.638700      2.561400     -0.117000      0.146497
H      -1.591300      2.254300      1.215700      0.149734
c1ccccc1C(C)c2ccccc2
