28
34.41139000
C      -2.584200      0.048600      1.175000     -0.178181
C      -3.971600     -0.086100      1.063700     -0.136958
C      -4.615700      0.258300     -0.127900     -0.166165
C      -3.872800      0.734200     -1.211900     -0.136947
C      -2.485100      0.870500     -1.105000     -0.178177
C      -1.832300      0.539600      0.094400      0.021142
C      -0.335200      0.652200      0.200000     -0.280264
C       0.335200     -0.652200     -0.241100     -0.280315
C       1.832300     -0.539600     -0.135500      0.021111
C       2.485100     -0.870500      1.063800     -0.178169
C       3.872800     -0.734200      1.170800     -0.136958
C       4.615700     -0.258300      0.086800     -0.166150
C       3.971600      0.086100     -1.104800     -0.136978
C       2.584200     -0.048600     -1.216100     -0.178146
H      -2.096000     -0.230500      2.100600      0.152319
H      -4.547200     -0.460900      1.900200      0.146966
H      -5.689500      0.152200     -0.212800      0.148551
H      -4.371800      0.994300     -2.136500      0.146972
H      -1.919800      1.231500     -1.955300      0.152267
H      -0.048700      0.884900      1.249600      0.154251
H       0.024500      1.492100     -0.434900      0.154251
H       0.048700     -0.884900     -1.290700      0.154247
H      -0.024500     -1.492100      0.393700      0.154261
H       1.919800     -1.231600      1.914200      0.152276
H       4.371800     -0.994300      2.095400      0.146979
H       5.689500     -0.152200      0.171800      0.148562
H       4.547200      0.460900     -1.941300      0.146955
H       2.096000      0.230600     -2.141700      0.152298
c1ccccc1CCc2ccccc2
