34
24.40883000
C       3.233100     -0.513400      1.021900     -0.182707
C       4.413400      0.236100      1.039500     -0.136265
C       4.712700      1.097800     -0.018200     -0.164765
C       3.832100      1.212400     -1.096100     -0.137628
C       2.650600      0.465500     -1.119200     -0.172277
C       2.338000     -0.408100     -0.058700      0.003685
C       1.056600     -1.222300     -0.068600     -0.099272
C       1.046200     -2.185800     -1.265800     -0.443525
C      -0.174600     -0.288100     -0.056500     -0.266503
C      -1.482600     -1.034100      0.245500     -0.287814
C      -2.627300     -0.063500      0.363200      0.021894
C      -2.951200      0.503900      1.607200     -0.180363
C      -3.993200      1.431200      1.708300     -0.134397
C      -4.711100      1.805300      0.569000     -0.167656
C      -4.385600      1.256000     -0.674300     -0.134854
C      -3.344400      0.328400     -0.779800     -0.182144
H       3.019600     -1.174700      1.852300      0.149683
H       5.096500      0.148800      1.874600      0.146969
H       5.626900      1.677100     -0.002200      0.148266
H       4.064800      1.881000     -1.914800      0.147584
H       1.981300      0.569700     -1.963300      0.152556
H       1.020800     -1.846200      0.852900      0.141561
H       0.219800     -2.919700     -1.167800      0.145398
H       0.923300     -1.634700     -2.222200      0.147353
H       1.997800     -2.758400     -1.302800      0.147222
H      -0.024800      0.486400      0.729300      0.148965
H      -0.267700      0.235400     -1.033500      0.145382
H      -1.379900     -1.608800      1.192200      0.148644
H      -1.703400     -1.762700     -0.563300      0.149960
H      -2.396400      0.229800      2.496000      0.152376
H      -4.241600      1.862400      2.669400      0.146914
H      -5.516300      2.524200      0.648700      0.148311
H      -4.937700      1.551700     -1.557000      0.146493
H      -3.095700     -0.082600     -1.750500      0.150956
c1ccccc1C(C)CCc2ccccc2
