25
40.20337000
C       1.702500      0.243700     -1.246000     -0.175775
C       2.723800     -0.688200     -1.455700     -0.132295
C       3.344000     -1.305100     -0.365700     -0.164007
C       2.941600     -0.993800      0.936000     -0.132314
C       1.920700     -0.062500      1.150300     -0.175680
C       1.300700      0.571100      0.060100      0.028540
C       0.176500      1.544900      0.286900     -0.309289
C      -1.141700      0.820300      0.314300      0.028596
C      -1.640300      0.300800      1.521000     -0.175785
C      -2.848500     -0.403100      1.538700     -0.132258
C      -3.561700     -0.600700      0.353100     -0.164054
C      -3.066200     -0.097500     -0.853000     -0.132274
C      -1.858500      0.607000     -0.875300     -0.175768
H       1.224300      0.708100     -2.099500      0.151151
H       3.032100     -0.934500     -2.463500      0.147327
H       4.133400     -2.027200     -0.529900      0.148253
H       3.418500     -1.476700      1.779100      0.147341
H       1.612500      0.163300      2.163600      0.151144
H       0.331800      2.091900      1.242900      0.160956
H       0.171800      2.316400     -0.514300      0.160919
H      -1.093300      0.439300      2.445300      0.151191
H      -3.230100     -0.798400      2.471200      0.147335
H      -4.496000     -1.146800      0.368400      0.148239
H      -3.616400     -0.256300     -1.771400      0.147358
H      -1.481400      0.984100     -1.817800      0.151152
c1ccccc1Cc2ccccc2
