31
31.04811000
C       1.456000      0.635000     -1.035200     -0.169921
C       2.670900      1.312500     -1.164900     -0.136673
C       3.695800      1.094000     -0.245100     -0.161628
C       3.509900      0.192500      0.802800     -0.141771
C       2.297000     -0.489600      0.939700     -0.173589
C       1.236700     -0.267500      0.029800     -0.005876
C      -0.109200     -1.013400      0.115600      0.067106
C      -0.301200     -1.766800      1.454100     -0.451779
C      -0.112300     -2.069000     -1.016500     -0.451735
C      -1.265600     -0.001000      0.000900     -0.005820
C      -1.264600      1.141300      0.832600     -0.169927
C      -2.306200      2.070800      0.778900     -0.136646
C      -3.375900      1.873500     -0.093500     -0.161651
C      -3.409100      0.743000     -0.909500     -0.141785
C      -2.370500     -0.192000     -0.862000     -0.173523
H       0.680700      0.816700     -1.769000      0.157524
H       2.818400      2.005800     -1.982900      0.148878
H       4.636800      1.618800     -0.347800      0.147020
H       4.310100      0.017800      1.510600      0.145443
H       2.206800     -1.184600      1.761100      0.153498
H      -0.177500     -1.081100      2.319800      0.151299
H       0.422300     -2.604600      1.553200      0.149906
H      -1.322100     -2.204300      1.508600      0.154080
H      -0.109700     -1.583100     -2.015900      0.151223
H       0.792100     -2.712400     -0.947600      0.154081
H      -0.998000     -2.736400     -0.943900      0.149940
H      -0.450900      1.314500      1.525800      0.157509
H      -2.284800      2.943900      1.418200      0.148854
H      -4.182700      2.594000     -0.132800      0.147008
H      -4.244900      0.587400     -1.579600      0.145441
H      -2.448200     -1.055500     -1.505500      0.153511
c1ccccc1C(C)(C)c2ccccc2
