25
35.97409000
C      -3.435500     -0.638300      0.189500     -0.133828
C      -2.646100     -1.745600     -0.118400     -0.165540
C      -1.261100     -1.609200     -0.227200     -0.135048
C      -0.647700     -0.360300     -0.028000     -0.063439
C       0.827100     -0.271500     -0.124800     -0.001096
C       1.590600      0.153900      0.975600     -0.158603
C       2.983900      0.224300      0.880900     -0.139934
C       3.624500     -0.136500     -0.307600     -0.156979
C       2.873000     -0.572700     -1.402200     -0.139112
C       1.479500     -0.644700     -1.311800     -0.161136
C      -1.453600      0.772900      0.253100      0.047078
C      -2.844800      0.612700      0.377200     -0.183506
C      -0.860600      2.145100      0.439700     -0.457025
H      -4.508500     -0.748500      0.280200      0.146438
H      -3.107200     -2.713700     -0.266100      0.150497
H      -0.662400     -2.483800     -0.451700      0.155639
H       1.109000      0.419000      1.908400      0.156351
H       3.567400      0.554200      1.730700      0.148569
H       4.703100     -0.082200     -0.378900      0.147141
H       3.370500     -0.855600     -2.320900      0.148807
H       0.908500     -0.982300     -2.168100      0.157258
H      -3.476600      1.460900      0.611100      0.151990
H      -0.495800      2.255900      1.481700      0.163339
H      -0.020500      2.310400     -0.267100      0.165518
H      -1.616400      2.935700      0.244900      0.156622
c1ccc(-c2ccccc2)c(c1)C
