31
26.22062000
C       1.557800      1.980500      0.847700     -0.456335
C       1.879200      0.793700     -0.024800      0.023929
C       2.938200      0.905500     -0.943600     -0.174376
C       3.270400     -0.158100     -1.780500     -0.145108
C       2.551200     -1.347500     -1.714600     -0.162303
C       1.503200     -1.484300     -0.804200     -0.157996
C       1.157800     -0.430600      0.072100     -0.032940
C      -0.011100     -0.583200      1.049300     -0.113922
C      -0.202700     -2.013600      1.579300     -0.438976
C      -1.302900     -0.062100      0.447800      0.012932
C      -1.790300     -0.563500     -0.775100     -0.168472
C      -2.989600     -0.083400     -1.309700     -0.134308
C      -3.719300      0.893300     -0.628700     -0.163317
C      -3.253500      1.388800      0.591100     -0.136678
C      -2.055200      0.911900      1.130600     -0.186140
H       0.480500      2.231800      0.772400      0.166759
H       2.129400      2.882300      0.541100      0.155821
H       1.817700      1.753500      1.902700      0.157721
H       3.508600      1.823200     -1.018700      0.150851
H       4.084400     -0.057100     -2.486800      0.146726
H       2.804800     -2.167900     -2.373700      0.147611
H       0.964600     -2.420700     -0.796000      0.152844
H       0.231200      0.010300      1.956600      0.153598
H      -0.913300     -2.003800      2.433600      0.149880
H      -0.619600     -2.688400      0.802500      0.150200
H       0.765300     -2.422700      1.939800      0.151610
H      -1.247500     -1.327300     -1.315000      0.158439
H      -3.354900     -0.471500     -2.251700      0.149100
H      -4.647800      1.263200     -1.044100      0.147812
H      -3.822600      2.141800      1.120700      0.145783
H      -1.714200      1.305800      2.079900      0.149253
Cc1ccccc1C(C)c2ccccc2
