37
15.57814000
C      -2.119800      1.547600      1.672700     -0.425583
C      -2.311700      0.031400      1.692700     -0.267084
C      -2.732000     -0.488400      0.331500     -0.004805
C      -4.022100     -0.154300     -0.123600     -0.169957
C      -4.463100     -0.553000     -1.385000     -0.153017
C      -3.625300     -1.291700     -2.215700     -0.155502
C      -2.348700     -1.648600     -1.782300     -0.167952
C      -1.887600     -1.274800     -0.505400     -0.013848
C      -0.500100     -1.724100     -0.096300     -0.281488
C       0.531800     -0.613000     -0.319000     -0.250579
C       1.938600     -1.081200      0.066600     -0.290827
C       2.937400      0.025800     -0.139100      0.023263
C       3.184800      0.955600      0.884900     -0.182084
C       4.086600      2.004700      0.680500     -0.134624
C       4.739000      2.138400     -0.548300     -0.167582
C       4.487300      1.225700     -1.576400     -0.134705
C       3.586100      0.175200     -1.376400     -0.180578
H      -3.084200      2.060500      1.473600      0.145443
H      -1.740900      1.887200      2.659700      0.142150
H      -1.388500      1.841000      0.891200      0.149491
H      -1.377600     -0.431100      2.061100      0.147051
H      -3.099000     -0.220400      2.436000      0.144753
H      -4.689400      0.426900      0.501200      0.150256
H      -5.455600     -0.282100     -1.721600      0.147931
H      -3.967000     -1.593000     -3.197600      0.148352
H      -1.718300     -2.227200     -2.446600      0.150300
H      -0.200600     -2.612500     -0.695600      0.146919
H      -0.491800     -2.069900      0.957500      0.147224
H       0.266500      0.272800      0.293900      0.148324
H       0.523500     -0.313900     -1.390700      0.146853
H       2.222600     -1.964000     -0.547700      0.149377
H       1.948600     -1.401400      1.131800      0.148159
H       2.678000      0.869000      1.838100      0.151245
H       4.276800      2.716200      1.473600      0.146333
H       5.435600      2.951700     -0.705300      0.148097
H       4.987800      1.334300     -2.529900      0.146933
H       3.392400     -0.519400     -2.184500      0.151764
CCc1ccccc1CCCc2ccccc2
