37
16.90127000
C      -3.153300      2.099500     -1.421200     -0.433139
C      -2.072600      1.462400     -0.544700     -0.263329
C      -2.365300      0.051800     -0.042800      0.000485
C      -3.665200     -0.497200     -0.137600     -0.174208
C      -3.927600     -1.799900      0.282900     -0.149530
C      -2.907000     -2.584300      0.806300     -0.165040
C      -1.623300     -2.061200      0.939600     -0.153146
C      -1.335200     -0.732200      0.561400     -0.042673
C       0.088300     -0.205200      0.749200     -0.084384
C       0.614100     -0.476000      2.171100     -0.445916
C       1.014800     -0.800700     -0.331300     -0.301135
C       2.363500     -0.126900     -0.352100      0.032546
C       3.467300     -0.720700      0.283200     -0.180514
C       4.709300     -0.078200      0.283000     -0.137350
C       4.856900      1.161200     -0.345800     -0.170245
C       3.762100      1.761600     -0.973600     -0.134718
C       2.518300      1.122700     -0.975500     -0.182826
H      -4.066200      2.309900     -0.824900      0.144214
H      -2.779700      3.065600     -1.821800      0.143154
H      -3.399200      1.438100     -2.279300      0.147977
H      -1.898200      2.125400      0.329800      0.152142
H      -1.145900      1.437800     -1.157900      0.150411
H      -4.491500      0.065500     -0.546100      0.153121
H      -4.926600     -2.206700      0.191000      0.147317
H      -3.111300     -3.601800      1.113900      0.148234
H      -0.851700     -2.703100      1.342300      0.151794
H       0.103400      0.898300      0.647700      0.145191
H       1.532200      0.120600      2.358400      0.151745
H      -0.145000     -0.174600      2.924300      0.150340
H       0.866400     -1.546900      2.317700      0.145492
H       0.542800     -0.674800     -1.331000      0.155783
H       1.132600     -1.895400     -0.171900      0.154841
H       3.365000     -1.676800      0.781500      0.151812
H       5.556800     -0.539900      0.772800      0.146574
H       5.818700      1.657600     -0.344200      0.148136
H       3.876500      2.723300     -1.456700      0.146027
H       1.675700      1.601100     -1.459600      0.150815
CCc1ccccc1C(C)Cc2ccccc2
