31
29.10914000
C       3.076300      0.069400      1.921500     -0.161610
C       3.246000     -1.065500      1.126300     -0.140214
C       2.465500     -1.242100     -0.019900     -0.183245
C       1.511300     -0.276700     -0.392100      0.002309
C       1.339900      0.857500      0.429000     -0.162495
C       2.122100      1.027700      1.574900     -0.140468
C       0.645300     -0.520700     -1.619400     -0.087278
C       0.408000      0.750200     -2.451900     -0.450166
C      -0.668300     -1.256600     -1.268200     -0.298012
C      -1.558100     -0.501500     -0.309300      0.026553
C      -1.427500     -0.689700      1.077800     -0.173882
C      -2.237200      0.024400      1.965800     -0.136013
C      -3.186900      0.925600      1.477500     -0.164233
C      -3.329500      1.112800      0.100100     -0.140849
C      -2.520600      0.401700     -0.791600     -0.182843
H       3.679300      0.202600      2.810400      0.147300
H       3.979700     -1.812300      1.400800      0.145377
H       2.603300     -2.135900     -0.615600      0.148031
H       0.592000      1.604000      0.201000      0.158293
H       1.982700      1.900800      2.199200      0.148932
H       1.207600     -1.203800     -2.295500      0.141582
H      -0.220700      1.488200     -1.915100      0.154658
H      -0.103100      0.488400     -3.402800      0.145057
H       1.380200      1.226200     -2.701900      0.150718
H      -1.229500     -1.469900     -2.204600      0.151590
H      -0.417600     -2.249100     -0.832400      0.151698
H      -0.691800     -1.380900      1.470300      0.157043
H      -2.127400     -0.119900      3.032800      0.148993
H      -3.812800      1.478000      2.166300      0.147548
H      -4.066600      1.809800     -0.277000      0.145262
H      -2.641500      0.557400     -1.856400      0.150366
c1ccc(cc1)C(C)Cc2ccccc2
