15
qm7 1225 -1490.72
C          1.00000        0.00000        0.00000
C          2.44400        0.00000        0.00000
C          3.63420        0.00000        0.00000
C          5.07350       -0.06770       -0.03810
C          5.74850       -1.40260       -0.06790
N          5.61350        1.11190       -0.05030
N          6.96870        1.13570       -0.09070
H          0.60600        1.02080        0.01170
H          0.60600       -0.52060        0.87830
H          0.60600       -0.50030       -0.88990
H          5.01320       -2.21240       -0.07020
H          6.38720       -1.51150        0.81310
H          6.36340       -1.48510       -0.96860
H          7.27940        2.09900       -0.24250
H          7.36460        0.87390        0.81560
