11
qm7 938 -1163.99
C          0.98180       -0.03400       -0.00710
C          2.44690        0.11660        0.00030
C          3.30230        1.19090        0.00230
C          4.58090        0.60680        0.01000
N          4.52340       -0.72690        0.01250
O          3.17220       -1.03530        0.00620
H          0.48650        0.94180        0.00130
H          0.64890       -0.59200        0.87350
H          0.65620       -0.57350       -0.90170
H          3.04200        2.23860       -0.00130
H          5.54840        1.08730        0.01390
