9
qm7 6696 -893.41
O          2.72090       -0.99800       -0.16050
C          2.13540        0.06840        0.01190
S          3.00710        1.58470        0.07880
O          2.80470        2.33390       -1.13950
O          2.95660        2.13010        1.41610
C          4.75050        1.25380       -0.05000
C          5.92940        1.03480       -0.13630
H          1.04420        0.13170        0.13300
H          6.97460        0.84350       -0.21280
