12
qm7 5530 -1272.93
N          0.90990       -0.05320       -0.00040
C          2.25090       -0.01030       -0.00060
C          3.03650        1.11680       -0.00320
O          2.80430        2.41590       -0.00610
O          4.35240        0.78920       -0.00260
C          4.40340       -0.57230        0.00040
C          3.13330       -1.10910        0.00170
H          0.35900        0.80100       -0.00190
H          0.37430       -0.91350        0.00210
H          3.69980        2.79410       -0.00700
H          5.39600       -1.00100        0.00120
H          2.88780       -2.16060        0.00410
