14
qm7 4345 -1462.2
C          1.00100       -0.05420        0.00310
C          2.52000        0.00000        0.00000
C          3.00200        1.36120        0.00000
C          3.39930        2.48310        0.00000
C          3.94530        3.81740        0.00000
N          5.30240        3.89740        0.00000
O          3.21870        4.79940        0.00000
H          0.65770       -1.09370        0.00240
H          0.58500        0.44180       -0.88070
H          0.58870        0.43940        0.89000
H          2.89570       -0.53270       -0.88080
H          2.89930       -0.53410        0.87840
H          5.88600        3.07340        0.00000
H          5.72830        4.81300        0.00000
