16
qm7 3886 -1585.91
C          1.47420        0.26280       -0.27170
C          2.82690       -0.20260        0.11610
C          3.08520       -1.63290        0.45580
N          4.27160       -1.97370       -0.35130
C          5.07380       -0.75040       -0.52430
C          4.06350        0.34560       -0.48710
O          3.63030        0.76420        0.81490
H          1.47190        1.32310       -0.54350
H          0.77310        0.12540        0.55660
H          1.10460       -0.30510       -1.13060
H          2.25140       -2.28690        0.18470
H          3.29530       -1.74860        1.52500
H          4.82070       -2.68830        0.12050
H          5.79930       -0.64060        0.28920
H          5.60720       -0.78020       -1.47850
H          4.03480        1.02140       -1.32400
