21
qm7 3632 -2049.81
C          1.90840       -0.21890       -1.39330
C          2.27100        0.22970        0.01580
C          2.96150        1.57890        0.02280
C          2.04750        2.78450        0.04160
C          1.67540        3.19320        1.45970
C          4.30810        1.64640        0.01180
C          5.16260        2.87390        0.03350
H          1.39790       -1.18620       -1.36060
H          2.80490       -0.33280       -2.01180
H          1.24400        0.49750       -1.88500
H          2.91560       -0.53070        0.47620
H          1.36760        0.26970        0.63630
H          1.13440        2.56610       -0.52470
H          2.50840        3.63400       -0.47330
H          1.15120        2.38730        1.98450
H          1.01470        4.06630        1.43960
H          2.56400        3.45740        2.04310
H          4.87320        0.71550       -0.01050
H          4.59360        3.80200        0.11990
H          5.75900        2.92360       -0.88280
H          5.84900        2.82670        0.88470
