11
qm7 5829 -1189.07
N          0.97190        0.13070       -0.45150
C          2.18070        0.09540       -0.02250
N          2.85770       -1.04020        0.28810
C          2.34630       -2.30340        0.18710
O          2.99480       -3.30170        0.47890
C          2.82080        1.37270        0.12300
C          3.35790        2.44040        0.24530
H          0.66960        1.09750       -0.61910
H          3.80860       -0.98080        0.62000
H          1.30710       -2.35100       -0.17680
H          3.83170        3.38900        0.35270
