11
qm7 6958 -1261.18
C          0.97530       -0.03120       -0.00260
C          2.17490        0.00090        0.00040
C          3.59580        0.03590        0.00410
C          4.40510        1.14490        0.00350
N          5.67810        0.64240        0.00820
C          5.58230       -0.72200        0.01120
N          4.32970       -1.11860        0.00890
H         -0.08880       -0.07040       -0.00530
H          4.19710        2.20490        0.00040
H          6.53640        1.17560        0.00920
H          6.45170       -1.36620        0.01520
