14
qm7 4952 -1384.44
C          3.11370       -1.36880       -0.12990
C          2.61950        0.05140       -0.19880
O          1.43060        0.30960       -0.41200
N          3.54920        1.05800       -0.01400
O          3.01470        2.37050       -0.09200
C          4.89610        0.98050        0.23070
C          5.70610        2.03370        0.39440
H          3.85910       -1.54740       -0.90960
H          2.27500       -2.05280       -0.29320
H          3.53660       -1.57380        0.85730
H          2.06770        2.18560       -0.26780
H          5.31980       -0.01690        0.29310
H          5.33940        3.05400        0.34270
H          6.76450        1.89510        0.58560
