18
qm7 7056 -1771.85
C          0.93820        0.01830       -0.29120
C          2.38810       -0.22520        0.02400
C          2.70370       -1.60130        0.53920
C          3.31480        0.73790       -0.15570
C          4.75150        0.64890        0.10350
C          5.64680        0.02770       -0.93700
N          5.62300        1.47020       -0.73190
H          0.75860        1.03210       -0.66320
H          0.32710       -0.11990        0.60630
H          0.59440       -0.68330       -1.05810
H          2.13890       -1.79960        1.45630
H          3.76460       -1.73700        0.77140
H          2.42960       -2.35520       -0.20630
H          2.97870        1.70380       -0.53320
H          5.03550        0.56570        1.14740
H          5.20810       -0.32760       -1.86080
H          6.53270       -0.49860       -0.60800
H          6.43800        1.77860       -0.20030
