16
qm7 5371 -1553.14
C          2.83670       -0.88520       -0.37320
O          2.76100        0.03840        0.70760
C          3.01290        1.38490        0.28710
C          2.46600        2.30950        1.36650
C          4.51380        1.65780        0.10380
N          5.32410        1.07450        1.03770
O          4.97180        2.37630       -0.77890
H          2.64140       -1.88620        0.02030
H          3.83290       -0.87790       -0.82450
H          2.07820       -0.65450       -1.12700
H          2.49830        1.58430       -0.66080
H          2.92130        2.09720        2.34030
H          1.38710        2.16210        1.48350
H          2.65260        3.36010        1.12290
H          4.95190        0.34130        1.63010
H          6.32420        1.16520        0.92710
