15
qm7 2853 -1571.23
C          1.00100       -0.05430        0.00310
C          2.52000        0.00000        0.00000
C          3.00200        1.36120        0.00000
C          3.39930        2.48310        0.00000
C          3.96060        3.81520        0.00080
C          5.45850        3.91230       -0.00610
O          3.22000        4.79120        0.00400
H          0.65770       -1.09370        0.00240
H          0.58500        0.44180       -0.88080
H          0.58870        0.43940        0.89000
H          2.89570       -0.53270       -0.88080
H          2.89930       -0.53410        0.87840
H          5.91990        2.92060        0.01310
H          5.78870        4.46560        0.87710
H          5.78230        4.42970       -0.91280
