16
qm7 1637 -1605.09
C          1.08630       -0.03870        0.05920
N          2.54330       -0.02030       -0.00080
C          3.09100        1.02420        0.90340
C          4.17720        0.00690        1.30310
C          3.12190       -1.05370        0.90700
C          3.61310       -2.18740        0.15650
C          4.01890       -3.13710       -0.45730
H          0.70160       -0.90210       -0.49390
H          0.68270        0.85930       -0.42100
H          0.68540       -0.08390        1.07880
H          2.44390        1.32540        1.73770
H          3.45550        1.92280        0.39710
H          5.07260        0.04390        0.66990
H          4.47950        0.02030        2.35330
H          2.48400       -1.34200        1.75450
H          4.37850       -3.97730       -1.00670
