18
qm7 6591 -1799.95
C          1.01250        0.03410        0.01760
C          2.49750       -0.00100       -0.01940
C          3.28230       -1.08610       -0.07600
C          4.73320       -0.73770       -0.05840
N          5.30340       -1.08710        1.23390
C          4.70960        0.77420       -0.32100
C          3.30740        1.25550        0.05610
H          0.58490       -0.97250       -0.02970
H          0.62380        0.60530       -0.83120
H          0.66500        0.50570        0.94200
H          2.92720       -2.10740       -0.10200
H          5.27450       -1.25740       -0.85540
H          4.78540       -0.60260        1.96590
H          6.25590       -0.73120        1.28590
H          4.88110        0.95750       -1.39060
H          5.48970        1.32360        0.21750
H          2.95640        2.01900       -0.64480
H          3.28470        1.66430        1.07200
