15
qm7 4002 -1492.61
C          1.07590       -0.07750        0.13690
C          2.58480        0.00250        0.00520
C          3.19190        1.19780        0.73940
N          4.42720        0.62150        1.19290
C          4.28830       -0.71910        1.29090
N          5.00890       -1.53700        1.95310
O          3.18850       -1.15360        0.62400
H          0.69750       -0.97180       -0.36970
H          0.59340        0.80270       -0.29840
H          0.77490       -0.16300        1.18680
H          2.87410       -0.00000       -1.05250
H          2.58640        1.50460        1.59920
H          3.34320        2.05820        0.08210
H          4.93730        1.04960        1.95480
H          4.59570       -2.46480        1.81010
