19
qm7 2592 -1841.79
C          3.01170       -1.03320       -0.70810
C          2.38650        0.14050        0.02920
C          3.32110        1.31100        0.09400
C          3.44920        2.33230       -1.01690
C          2.66290        2.25850       -2.28130
C          2.76230        2.70020        0.27280
O          3.49370        3.56450        1.15240
H          2.32310       -1.88330       -0.72380
H          3.93890       -1.35240       -0.22160
H          3.25110       -0.76710       -1.74210
H          2.14390       -0.16970        1.05280
H          1.43730        0.40690       -0.44880
H          4.22050        1.06020        0.64730
H          4.43910        2.73420       -1.20360
H          1.61740        1.98210       -2.11520
H          3.10910        1.52600       -2.96090
H          2.67230        3.23220       -2.78200
H          1.68300        2.81950        0.25870
H          4.45310        3.41650        1.10320
