19
qm7 1939 -1805.58
N          0.98630       -0.01010        0.12310
C          2.45050       -0.00270        0.01570
C          2.93520       -1.35430       -0.52010
C          2.60790       -1.51630       -2.00490
C          3.12170       -0.32990       -2.82130
N          2.62410        0.94910       -2.31780
C          2.96430        1.13660       -0.90360
H          0.64850        0.92320        0.34560
H          0.69400       -0.63150        0.87260
H          2.85900        0.15450        1.02130
H          2.49970       -2.18210        0.05200
H          4.02280       -1.42200       -0.38590
H          3.05940       -2.44220       -2.37970
H          1.52390       -1.61630       -2.14030
H          4.21890       -0.32630       -2.82400
H          2.80240       -0.44810       -3.86280
H          3.01530        1.71040       -2.86830
H          4.05460        1.21900       -0.80060
H          2.54880        2.09390       -0.56630
