18
qm7 4430 -1694.5
C          0.57170       -0.81200        0.08730
C          2.08180       -0.62780       -0.07740
C          2.61390       -1.55580       -1.16720
C          2.43490        0.82910       -0.39590
O          2.03490        1.66280        0.69410
N          2.35630        2.99170        0.37860
C          1.98990        3.74510        1.35870
H          0.18480       -0.19730        0.90660
H          0.33140       -1.85600        0.31600
H          0.03620       -0.53450       -0.82710
H          2.55130       -0.89990        0.87650
H          2.16670       -1.32450       -2.14020
H          2.39010       -2.60180       -0.93160
H          3.70070       -1.46060       -1.26250
H          1.92720        1.15930       -1.31060
H          3.51750        0.93190       -0.53850
H          2.15510        4.83180        1.30730
H          1.50740        3.35330        2.27010
