15
qm7 2042 -1603.11
C          0.96750        0.43790       -1.05740
C          2.13740        0.28140       -0.84310
C          3.52180        0.09060       -0.58980
C          4.35350        1.12640       -0.40450
C          5.78970        1.02470       -0.12820
C          6.71260        0.53710       -1.21420
C          6.72690        1.98360       -0.81470
H         -0.07130        0.57780       -1.24770
H          3.89710       -0.92740       -0.55090
H          3.94440        2.13530       -0.44190
H          6.03260        0.74880        0.89400
H          6.29880        0.28560       -2.18460
H          7.55510       -0.07940       -0.92210
H          7.57990        2.34650       -0.25240
H          6.32470        2.70450       -1.51770
