18
qm7 4689 -1719.24
C          1.01580       -0.27500        0.77830
C          2.47800       -0.12340        1.18480
N          3.04400        1.20380        0.87420
C          2.38400        2.26050        1.65390
C          4.49680        1.18600        1.16010
C          5.16130        2.42530        0.59880
O          5.93420        3.13080        1.24260
H          0.70650       -1.31990        0.88740
H          0.86280        0.01220       -0.26710
H          0.35330        0.32750        1.40700
H          3.04030       -0.88540        0.62980
H          2.58770       -0.35860        2.25110
H          1.32660        2.34510        1.38450
H          2.81860        3.24250        1.43790
H          2.45670        2.08300        2.73270
H          4.97430        0.33890        0.65340
H          4.70270        1.10950        2.23410
H          4.96120        2.63350       -0.46610
