17
qm7 280 -1608.8
C          0.94390       -0.02130        0.05920
C          2.45690       -0.00100       -0.01210
C          3.18570        1.03000        0.87650
N          4.14540       -0.01680        1.29060
C          5.34520        0.02280        0.45380
C          3.21320       -1.06290        0.81630
H          0.54590       -0.88910       -0.47620
H          0.52600        0.87900       -0.40210
H          0.58710       -0.06850        1.09310
H          2.79570        0.03410       -1.05730
H          2.58690        1.40620        1.71530
H          3.60170        1.89570        0.34940
H          5.97390       -0.84880        0.66620
H          5.93680        0.91300        0.69390
H          5.13900        0.03530       -0.62310
H          3.65140       -1.88570        0.24070
H          2.62500       -1.50230        1.63170
