10
qm7 1158 -1074.92
O          0.85540        0.10640       -0.00600
C          2.18400        0.07340        0.00030
C          3.07250        1.12890        0.00470
C          4.43190        0.69750        0.01110
C          4.53360       -0.67490        0.01140
S          2.99900       -1.42840        0.00390
H          0.58900        1.04050       -0.00710
H          2.76960        2.16780        0.00350
H          5.28930        1.35940        0.01530
H          5.43310       -1.27520        0.01550
