17
qm7 3645 -1724.63
O          3.02930       -0.96230       -0.63640
C          2.47280        0.07790        0.15710
C          3.27540        1.35560       -0.04130
C          3.25550        1.86930       -1.48880
C          3.31660        3.35190       -1.30430
C          3.05080        3.70740       -0.04310
C          2.76860        2.51980        0.81830
H          2.50000       -1.76170       -0.47250
H          2.50350       -0.23480        1.20600
H          1.42650        0.21570       -0.13570
H          4.32390        1.14920        0.22160
H          2.34150        1.59400       -2.02530
H          4.12060        1.50000       -2.04810
H          3.52100        4.04400       -2.10990
H          3.01020        4.72810        0.31220
H          3.31500        2.57260        1.76480
H          1.69640        2.45530        1.03120
