17
qm7 6796 -1683.16
C          1.05440        0.06340        0.02660
C          2.57390        0.00030       -0.04610
C          3.07460       -1.21200       -0.85370
N          3.37400       -0.70930       -2.22860
C          3.36880        0.59110       -2.09770
C          3.61780        1.49110       -3.26670
N          3.08520        1.08850       -0.85300
H          0.73050        0.97820        0.53510
H          0.65710       -0.79320        0.58090
H          0.59860        0.06380       -0.97050
H          3.00200        0.01220        0.96080
H          2.33930       -2.02200       -0.89570
H          4.00220       -1.60830       -0.42420
H          3.59410        2.53960       -2.95950
H          2.84760        1.32030       -4.02390
H          4.59650        1.26370       -3.69750
H          2.64410        1.99710       -0.78510
