18
qm7 3919 -1717.69
C          0.84890        0.01940       -0.24160
C          2.32380       -0.01650        0.06820
C          2.62010       -0.03770        1.54790
C          3.28180       -0.75770       -0.83890
N          2.82300       -1.51270       -2.00650
C          3.25070        0.75130       -0.85070
O          4.37510        1.40080       -0.23690
H          0.64440        0.16300       -1.30780
H          0.36830        0.84490        0.29490
H          0.37320       -0.91520        0.07260
H          3.69250       -0.13860        1.75900
H          2.11160       -0.88260        2.02600
H          2.27070        0.88700        2.02020
H          4.14790       -1.21480       -0.36050
H          2.08910       -1.02090       -2.51430
H          2.41480       -2.40030       -1.71440
H          2.81900        1.24040       -1.71730
H          5.19800        1.16510       -0.69630
