14
qm7 5761 -1406.92
N          0.91960       -0.30980        0.06280
C          2.27590       -0.09650       -0.01310
C          2.92490        1.07700        0.06270
C          2.34560        2.45190        0.22460
O          0.92140        2.45040        0.11990
C          4.40680        1.02520       -0.03480
O          5.10570        2.03040        0.02140
H          0.66440       -1.19960        0.49080
H          0.42540        0.47200        0.50540
H          2.81460       -1.03360       -0.14790
H          2.72880        3.13210       -0.54330
H          2.60560        2.85850        1.20670
H          0.72470        2.10790       -0.77230
H          4.85270        0.02400       -0.16130
