19
qm7 2291 -1845.96
C          1.04880        0.08910       -0.08510
C          2.53790        0.02900       -0.02630
C          3.36600       -0.71470       -1.05610
C          2.75270       -1.44000       -2.20540
C          3.43560        0.79780       -0.97880
C          2.89930        1.67740       -2.06350
O          4.63690        1.32900       -0.39240
H          0.68370        0.87000        0.58830
H          0.62720       -0.86410        0.24670
H          0.65610        0.29990       -1.08110
H          2.86170       -0.05520        1.00700
H          4.22650       -1.26730       -0.69000
H          1.85000       -0.96340       -2.59480
H          2.48520       -2.45650       -1.90050
H          3.47400       -1.51410       -3.02570
H          2.00710        1.27940       -2.55250
H          3.66090        1.82150       -2.83690
H          2.64350        2.66080       -1.65490
H          4.98430        0.76140        0.31600
