17
qm7 4787 -1577.57
C          0.95700       -0.05320       -0.47960
C          2.41280       -0.12490       -0.04890
N          3.01760        1.20790       -0.09240
N          4.33090        1.25880        0.24400
C          4.88590        2.38950       -0.03250
O          6.18400        2.67650        0.22450
C          6.94390        1.62580        0.82960
H          0.51160       -1.05330       -0.47240
H          0.86350        0.35000       -1.49390
H          0.37330        0.58070        0.19660
H          2.95540       -0.79940       -0.72070
H          2.47610       -0.53490        0.96540
H          2.46380        1.83810        0.49480
H          4.38880        3.25390       -0.50410
H          7.96620        1.98770        0.97020
H          6.97560        0.74800        0.17660
H          6.53060        1.37040        1.81030
