8
qm7 6716 -825.76
O          1.06160        0.06010       -0.17650
S          2.47400       -0.02950        0.08600
O          3.17140       -0.67340        1.16810
C          3.08810       -0.87380       -1.33810
C          3.50530       -1.45180       -2.30740
C          3.06150        1.64500        0.07770
N          3.45970        2.74040        0.05050
H          3.87070       -1.97040       -3.16280
