15
qm7 2299 -1608.46
C          1.62370       -0.60350        1.01970
C          2.41500       -0.10730        0.05900
C          3.13410        1.20710        0.14290
C          4.58300        0.98980        0.06020
C          5.77010        0.81990       -0.00660
C          7.17190        0.61340       -0.08490
C          8.03190        1.63740       -0.07940
H          1.13090       -1.56270        0.89180
H          1.45520       -0.07370        1.95200
H          2.55010       -0.67910       -0.85780
H          2.88870        1.73200        1.07320
H          2.80280        1.84580       -0.68330
H          7.53550       -0.40740       -0.14960
H          7.69270        2.66770       -0.01510
H          9.10030        1.46230       -0.13930
