20
qm7 1353 -1912.1
C          1.31700        0.23090        0.18590
C          2.79720        0.00370       -0.12850
C          2.93530       -0.78610       -1.43220
N          3.46060        1.30720       -0.28500
C          3.92420        1.88970        0.97580
C          4.89390        1.27520       -0.00310
C          5.79980        2.14050       -0.80730
H          1.19090        0.77400        1.12900
H          0.79250       -0.72610        0.28360
H          0.82000        0.80510       -0.60450
H          3.23300       -0.59470        0.68330
H          2.49550       -0.24690       -2.27910
H          2.42750       -1.75360       -1.35230
H          3.98710       -0.98370       -1.66660
H          3.71870        1.36280        1.89910
H          3.86120        2.96890        1.04050
H          5.35420        0.32850        0.25380
H          5.33520        3.09510       -1.07790
H          6.08820        1.62930       -1.73210
H          6.71260        2.35670       -0.24220
