16
qm7 6907 -1629.56
C          1.00000        0.00000        0.00000
C          2.19020        0.00000        0.00000
C          3.63420        0.00000        0.00000
C          4.21360        1.15050        0.80840
C          5.60560        0.65510        1.14510
C          5.44630       -0.85200        1.26660
N          4.14070       -1.18190        0.70050
H         -0.06520       -0.00670        0.00860
H          4.03270        0.02180       -1.02170
H          3.64650        1.32640        1.73260
H          4.23600        2.09030        0.24690
H          6.29240        0.89190        0.32370
H          5.99560        1.11200        2.05950
H          6.25490       -1.37430        0.74470
H          5.46900       -1.16110        2.31680
H          4.19090       -1.97630        0.06760
