17
qm7 2702 -1696.08
C          2.25520        2.65320       -0.65530
C          2.72790        1.41210       -0.47820
C          3.47210        0.96290        0.74550
C          4.86500        0.51060        0.34190
C          5.90770        1.60010        0.05600
O          6.84380        0.99640        0.98350
C          5.79770        0.13850        1.50130
H          1.71260        2.91610       -1.55900
H          2.39050        3.43040        0.09010
H          2.55130        0.66810       -1.25350
H          2.92510        0.12800        1.19820
H          3.51920        1.76060        1.49620
H          4.85120       -0.27310       -0.42760
H          5.65110        2.61770        0.36760
H          6.29990        1.61310       -0.96480
H          6.10830       -0.90950        1.52960
H          5.48700        0.45870        2.50090
