12
qm7 603 -1224.69
C          0.35140        1.27010        0.02000
O          1.20980        0.33220       -0.62330
C          1.02550       -0.97110       -0.07830
C         -0.42600       -1.29510        0.01930
C         -1.34490       -0.32830       -0.05120
O         -1.04570        1.00350       -0.15860
H          0.55300        2.25540       -0.41130
H          0.58270        1.32670        1.09180
H          1.50640       -1.03420        0.90390
H          1.52360       -1.67980       -0.74690
H         -0.72250       -2.33280        0.12060
H         -2.41330       -0.49620       -0.04010
