12
qm7 1160 -1123.86
O          0.91120       -0.03770        0.10660
S          2.33360       -0.00110       -0.15210
O          2.89670        0.04830       -1.48550
C          3.17220        1.09590        0.95570
C          4.22320       -0.00130        1.23200
C          3.21790       -1.12350        0.89280
H          2.55480        1.36470        1.81860
H          3.55620        2.00200        0.48100
H          5.07950        0.03570        0.54710
H          4.61190       -0.02220        2.25410
H          3.63840       -1.98470        0.36810
H          2.61310       -1.46590        1.73840
