18
qm7 3928 -1735.44
C          1.04990       -0.05550        0.07930
C          2.56070        0.05770       -0.00080
C          3.12790        1.18440        0.84870
C          4.51560        0.67960        1.18740
N          5.45530        0.95660        0.09050
C          4.24330       -0.81420        1.36330
O          3.16690       -1.15940        0.47240
H          0.69890       -0.89970       -0.52430
H          0.56540        0.85730       -0.27970
H          0.72250       -0.24840        1.10660
H          2.85900        0.17930       -1.04870
H          2.55210        1.29670        1.77580
H          3.11100        2.15110        0.33370
H          4.91070        1.13170        2.10160
H          5.16930        0.43310       -0.73950
H          6.37290        0.58240        0.33360
H          5.11070       -1.44640        1.15050
H          3.90720       -1.02890        2.38370
