16
qm7 1266 -1622.77
C          0.84970        0.34130        0.18090
C          2.32590        0.08800        0.04810
C          2.89080       -1.12680       -0.09440
C          2.22060       -2.46140       -0.09840
N          2.46190       -3.12250       -1.37130
C          3.18980        1.22810        0.05720
C          3.91240        2.18660        0.06490
H          0.55220        1.19950       -0.43310
H          0.59660        0.56380        1.22270
H          0.23750       -0.50150       -0.14920
H          3.97600       -1.18330       -0.19470
H          1.14570       -2.40350        0.08770
H          2.64890       -3.06980        0.70570
H          2.01770       -2.58230       -2.11260
H          2.00050       -4.03020       -1.36800
H          4.55650        3.03540        0.07030
