18
qm7 4087 -1717.32
C          1.18870       -0.10320       -0.11960
C          2.66640        0.07820       -0.15350
N          3.43870       -0.38900       -1.29780
C          3.36150        1.07540       -1.07240
C          2.58040        1.89150       -2.06870
C          4.63310        1.73600       -0.57940
O          5.70450        1.36140       -1.43800
H          0.72430        0.71120        0.44510
H          0.93970       -1.04460        0.38100
H          0.73610       -0.13020       -1.11570
H          3.10830       -0.10920        0.82040
H          2.82890       -0.66910       -2.06920
H          1.77380        1.32550       -2.54510
H          3.23930        2.25210       -2.86600
H          2.13590        2.76140       -1.57410
H          4.88790        1.42250        0.43830
H          4.54630        2.82710       -0.58250
H          5.56540        0.40640       -1.59470
