16
qm7 3976 -1613.21
C          1.82840        0.04320       -0.44480
C          0.85470        0.93260        0.27950
C         -0.60780        1.07900       -0.05290
C         -1.38100        0.05980        0.88540
C         -0.47260       -0.93470        0.04610
C         -0.93110       -0.00160       -1.14870
N          0.90850       -0.54580        0.50490
H          1.70920       -0.18890       -1.49440
H          2.86670        0.08290       -0.13310
H          1.15680        1.52550        1.13220
H         -1.02390        2.07780       -0.17860
H         -1.17790        0.13080        1.95890
H         -2.46430       -0.02030        0.73750
H         -0.72300       -1.99460        0.03560
H         -1.98180       -0.08970       -1.45300
H         -0.32740        0.00610       -2.05910
