15
qm7 3601 -1494.75
O          0.82950        0.01800        0.17030
C          2.27390        0.01720        0.00860
C          3.03250        0.99160        0.95330
O          3.34100       -0.09160        1.87130
C          3.03300       -1.05960        0.83130
C          2.69390        0.09870       -1.42290
C          2.19880       -0.75410       -2.32950
H          0.69480       -0.04360        1.13280
H          2.41230        1.75550        1.43160
H          3.94700        1.45560        0.56860
H          3.94730       -1.47220        0.39110
H          2.41420       -1.87560        1.21630
H          3.40290        0.86370       -1.72410
H          1.47210       -1.51520       -2.05920
H          2.49440       -0.69200       -3.37200
