18
qm7 4816 -1784.07
C         -1.69100        0.84150        0.56150
C         -1.18080       -0.30020       -0.27220
C         -0.34350       -1.40430        0.29570
C          1.05090       -1.31470       -0.32130
C          1.72750        0.04600       -0.07360
N          0.83430        1.16040        0.26440
C         -0.49980        1.04240       -0.33680
H         -2.62430        1.30630        0.26550
H         -1.54480        0.80620        1.63400
H         -1.75080       -0.60850       -1.14060
H         -0.27960       -1.33340        1.38810
H         -0.79670       -2.37310        0.05970
H          1.68550       -2.12090        0.06320
H          0.96370       -1.46700       -1.40630
H          2.45090       -0.06260        0.74290
H          2.31570        0.31570       -0.95870
H          0.75860        1.22260        1.27880
H         -0.64650        1.62340       -1.24360
