15
qm7 1042 -1451.06
C          0.95170       -0.09430        0.02440
N          2.39990        0.00980        0.11190
C          3.13690       -1.24070        0.03510
C          3.10700        1.20020       -0.01210
C          2.30550        2.47750       -0.04190
O          4.33440        1.24370       -0.09120
H          0.45260        0.83540        0.30180
H          0.60600       -0.88410        0.69780
H          0.68440       -0.34820       -1.00560
H          2.72790       -1.94440        0.76620
H          4.20110       -1.10160        0.24310
H          3.02290       -1.65120       -0.97260
H          1.61640        2.47460       -0.89080
H          2.98440        3.32750       -0.16010
H          1.76250        2.60390        0.89810
