17
qm7 1601 -1630.09
C          0.93210        0.15520        0.45080
C          2.37680        0.09530       -0.04920
N          2.44620       -0.49920       -1.39490
N          2.03350       -1.78840       -1.50990
C          2.05700       -2.22190       -2.72620
C          2.95140        1.48860       -0.11320
C          4.01900        1.90450        0.58200
H          0.88030        0.63680        1.43400
H          0.50700       -0.84890        0.55630
H          0.28910        0.72250       -0.23240
H          2.96600       -0.52070        0.64220
H          3.41090       -0.39700       -1.72190
H          1.74190       -3.25510       -2.94030
H          2.37390       -1.61000       -3.58910
H          2.44620        2.19260       -0.77230
H          4.55550        1.24230        1.25460
H          4.37710        2.92530        0.49010
