59
Lipophilicity 638 2.4000000953674316
C     -7.940450    3.262016    1.129451
O     -6.565804    2.894048    1.133356
C     -6.026744    1.832668    0.390415
C     -6.821386    1.029949   -0.475648
C     -6.243163   -0.018076   -1.217085
C     -4.881270   -0.255518   -1.060580
N     -4.127725   -1.149723   -1.728631
C     -2.865713   -0.945464   -1.284881
C     -1.636234   -1.554432   -1.849948
C     -0.511599   -1.542316   -0.798327
N     -0.385193   -0.251706   -0.076844
C     -1.548475    0.614244    0.218868
C     -2.815503    0.067238   -0.356145
C     -4.111089    0.515011   -0.220764
C     -4.647423    1.572151    0.511696
C      0.863257    0.090695    0.567682
O      1.107217    1.299872    0.835653
C      1.834438   -0.973089    1.054732
C      1.538712   -1.288929    2.539056
C      2.704270   -1.987020    3.271839
C      3.661494   -2.695136    2.309365
C      4.275751   -1.715471    1.288314
C      3.321540   -0.562475    0.876018
C      3.656396   -0.107325   -0.525878
O      2.944738   -0.471739   -1.502510
N      4.825261    0.693215   -0.747199
C      5.042429    1.417614   -1.995476
C      6.454013    1.291399   -2.541219
C      5.295392    0.589116   -3.243067
C      4.427070    2.745277   -2.130557
N      3.946387    3.794274   -2.232458
H     -8.089377    4.102065    1.840172
H     -8.569164    2.406123    1.459186
H     -8.246815    3.590405    0.113820
H     -7.879727    1.218035   -0.589556
H     -6.838919   -0.613653   -1.896838
H     -4.435386   -1.799072   -2.485100
H     -1.839562   -2.599810   -2.167006
H     -1.322680   -0.963859   -2.738040
H      0.431251   -1.765350   -1.340437
H     -0.696931   -2.353412   -0.059775
H     -1.374672    1.625095   -0.205918
H     -1.669593    0.699231    1.319455
H     -4.016059    2.195520    1.135726
H      1.690726   -1.912982    0.484603
H      0.631306   -1.928566    2.594390
H      1.304288   -0.351979    3.091520
H      2.296562   -2.723541    3.995665
H      3.279572   -1.234876    3.855782
H      4.477833   -3.182277    2.890212
H      3.107907   -3.497927    1.770724
H      4.587132   -2.306862    0.397861
H      5.198972   -1.271549    1.724731
H      3.513565    0.296581    1.559357
H      5.473212    0.878293    0.053345
H      6.842820    2.163496   -3.110161
H      7.123992    0.587934   -1.999619
H      5.272461   -0.512819   -3.093408
H      4.976688    1.065387   -4.195360
