28
Lipophilicity 1848 2.0
O     -4.986823    1.454047   -0.034475
C     -4.075314    0.401589    0.012239
C     -4.543920   -0.912803    0.097741
C     -3.640607   -1.976904    0.149460
C     -2.264885   -1.731982    0.115926
C     -1.779519   -0.416154    0.028608
C     -2.695332    0.648988   -0.023235
N     -0.363991   -0.162637   -0.007374
C      0.328190    0.841033   -0.759507
O     -0.224566    1.644101   -1.557135
C      1.762111    0.753257   -0.508001
C      2.820621    1.507777   -1.009257
C      4.121320    1.186882   -0.581891
C      4.337626    0.125907    0.330414
O      5.626447   -0.190151    0.753323
C      3.248293   -0.619928    0.818300
C      1.970113   -0.282173    0.377358
C      0.669575   -0.858308    0.699692
O      0.469590   -1.796345    1.516239
H     -4.680291    2.417951   -0.096222
H     -5.608254   -1.109105    0.124132
H     -4.006953   -2.993529    0.211313
H     -1.581753   -2.570660    0.136134
H     -2.340858    1.670297   -0.068996
H      2.648115    2.317527   -1.706227
H      4.960036    1.759328   -0.956735
H      6.433164    0.325931    0.422210
H      3.397863   -1.433935    1.515968
