62
Lipophilicity 1570 1.7799999713897705
O     -7.572421   -4.502199    0.965287
C     -7.074143   -3.444317    0.207969
C     -7.909042   -2.801148   -0.711138
C     -7.416438   -1.752260   -1.491483
C     -6.089962   -1.335822   -1.348775
C     -5.248370   -1.953568   -0.411265
N     -3.882817   -1.519950   -0.300112
C     -3.173520   -1.406225    0.946633
O     -3.740109   -1.704988    2.032388
C     -1.771741   -0.936749    0.976714
C     -0.843935   -1.617243    1.779468
C      0.489104   -1.208274    1.829366
C      0.919356   -0.102997    1.076023
O      2.248981    0.349349    1.080749
C      3.354619   -0.321504    1.687498
C      3.767592   -1.562559    0.882944
C      4.108332   -1.235322   -0.579395
N      5.197818   -0.242699   -0.672646
C      5.347174    0.259098   -2.039891
C      6.777219    0.750263   -2.163603
C      7.554666   -0.028852   -1.116604
C      6.509923   -0.798775   -0.318035
C     -0.008148    0.592637    0.294243
C     -1.360456    0.198027    0.246856
O     -2.318091    0.922132   -0.486478
C     -2.077732    2.141077   -1.189542
C     -1.816424    3.265061   -0.228747
C     -0.810140    4.208107   -0.483585
C     -0.601409    5.248212    0.424368
C     -1.398875    5.345153    1.566024
C     -2.401133    4.397306    1.780910
N     -2.589009    3.390474    0.886400
C     -5.743823   -3.024599    0.354733
H     -6.993959   -4.989799    1.639795
H     -8.936742   -3.121097   -0.827290
H     -8.062082   -1.263585   -2.209719
H     -5.718535   -0.523741   -1.961317
H     -3.408242   -1.205745   -1.176199
H     -1.150851   -2.478847    2.360138
H      1.171817   -1.760356    2.458793
H      3.115867   -0.597767    2.736107
H      4.210571    0.384256    1.732353
H      2.944011   -2.306619    0.895694
H      4.642579   -2.038318    1.374899
H      4.374230   -2.175001   -1.114191
H      3.192496   -0.834170   -1.068806
H      4.629445    1.087496   -2.224382
H      5.175789   -0.548989   -2.789364
H      6.822821    1.838257   -1.937341
H      7.176854    0.570495   -3.185402
H      8.271309   -0.729334   -1.599018
H      8.116732    0.667325   -0.456027
H      6.688766   -0.674995    0.771623
H      6.583249   -1.880785   -0.573500
H      0.339727    1.446903   -0.268926
H     -1.240571    2.005506   -1.908157
H     -2.984213    2.391226   -1.778690
H     -0.192295    4.136199   -1.369955
H      0.175834    5.978726    0.242587
H     -1.244661    6.148347    2.274820
H     -3.030647    4.461997    2.658442
H     -5.096344   -3.554431    1.040654
