54
Lipophilicity 787 1.1200000047683716
C     -2.252048   -4.390873   -3.951987
O     -2.788750   -3.090481   -3.727779
C     -2.119763   -2.018026   -3.100459
C     -0.753794   -2.120458   -2.837716
C      0.059825   -1.318281   -2.052301
C     -0.266714   -0.216821   -1.252634
C     -1.461161    0.555742   -1.338712
C     -2.554486    0.269665   -2.169270
C     -2.908974   -0.897229   -2.850056
O     -4.092408   -0.931732   -3.301607
C     -1.615493    1.825409   -0.472250
C     -0.626187    2.961506   -0.839823
C      0.766283    2.507742   -1.298627
C      1.345092    1.493860   -0.347388
C      2.373961    1.868121    0.524607
C      2.918003    0.948146    1.424056
O      3.978164    1.289967    2.276927
C      4.620096    2.561395    2.304091
C      2.403231   -0.353774    1.490329
O      2.996294   -1.215943    2.429737
C      2.760670   -2.612052    2.569384
C      1.325769   -0.730978    0.650893
O      0.771856   -2.012377    0.766001
C     -0.568054   -2.247035    1.194774
C      0.816013    0.189058   -0.298308
N     -1.559739    1.504378    0.961519
C     -2.196840    2.320912    1.956043
O     -2.693358    3.434708    1.650770
C     -2.257511    1.858858    3.377129
H     -3.059664   -5.057095   -4.319121
H     -1.850401   -4.810789   -3.009300
H     -1.453922   -4.346712   -4.723840
H     -0.237572   -2.972782   -3.257109
H      1.084272   -1.679758   -1.979588
H     -3.323495    1.027896   -2.210533
H     -2.624996    2.264864   -0.639175
H     -1.069308    3.564934   -1.664891
H     -0.510206    3.645466    0.023721
H      0.708271    2.073005   -2.322561
H      1.423607    3.400325   -1.378114
H      2.752501    2.880162    0.490573
H      5.064393    2.784280    1.308292
H      3.891473    3.351864    2.588502
H      5.435501    2.539573    3.056270
H      1.732478   -2.793277    2.946500
H      2.926553   -3.130799    1.602763
H      3.474854   -3.022591    3.316760
H     -0.705532   -3.332086    1.371994
H     -1.296349   -1.930811    0.425392
H     -0.766158   -1.705550    2.142948
H     -1.186002    0.586977    1.280528
H     -3.181181    2.246355    3.864348
H     -1.374664    2.235255    3.925999
H     -2.274433    0.747887    3.422301
