33
Lipophilicity 1285 2.7200000286102295
C     -3.545733   -2.447265   -0.110016
C     -2.919524   -1.079698   -0.010255
C     -3.764191    0.042468    0.087785
C     -3.184619    1.299503    0.179287
N     -3.850487    2.468674    0.276488
N     -2.915472    3.406676    0.336844
C     -1.715396    2.801589    0.275903
O     -0.621683    3.424394    0.307225
N     -1.848491    1.461186    0.176080
C     -0.968142    0.418246    0.084205
C      0.427700    0.605134    0.085179
C      1.300018   -0.491961   -0.011227
C      0.764630   -1.784861   -0.106446
C     -0.615314   -1.988135   -0.107409
C     -1.502893   -0.899066   -0.012544
C      2.771497   -0.287208   -0.012487
C      3.351540    0.773374   -0.729714
C      4.735806    0.952105   -0.721965
C      5.535505    0.069465    0.004200
N      4.966254   -0.952405    0.695496
C      3.620822   -1.150216    0.703056
H     -3.220111   -3.073588    0.746954
H     -3.242565   -2.931287   -1.062126
H     -4.655289   -2.394920   -0.092101
H     -4.842650   -0.058667    0.092179
H     -3.102362    4.430806    0.416395
H      0.851983    1.591254    0.180413
H      1.416917   -2.644383   -0.198568
H     -0.975584   -3.004853   -0.186763
H      2.737876    1.451558   -1.309268
H      5.184986    1.765479   -1.277062
H      6.609716    0.196483    0.018645
H      3.215255   -1.969881    1.281621
