30
Lipophilicity 719 0.6200000047683716
C      3.581595    0.166127    0.458707
C      2.111257   -0.270821    0.520893
N      1.639845   -0.685723   -0.802589
C      1.229759    0.863398    1.069140
O     -0.088343    0.396032    1.365047
C     -1.048950    0.112678    0.383904
C     -1.622283    1.141137   -0.402047
C     -1.291284    2.590581   -0.177867
C     -2.525795    0.806412   -1.422429
C     -2.894879   -0.521484   -1.634075
C     -2.375763   -1.530445   -0.824040
C     -1.470336   -1.222076    0.201935
C     -0.897595   -2.333691    1.036869
H      4.208900   -0.662387    0.066762
H      3.947728    0.426587    1.474662
H      3.699811    1.050256   -0.203868
H      2.037822   -1.136561    1.215886
H      2.197058   -1.514304   -1.114095
H      1.808480    0.084523   -1.490584
H      1.671392    1.242665    2.015251
H      1.204942    1.708776    0.352018
H     -0.988659    2.775468    0.874103
H     -0.472874    2.896554   -0.862159
H     -2.178843    3.226859   -0.381906
H     -2.954444    1.578263   -2.050104
H     -3.593455   -0.768468   -2.423142
H     -2.678758   -2.555498   -0.999179
H     -1.612757   -3.180726    1.108626
H     -0.686264   -1.985393    2.069731
H      0.042693   -2.698737    0.574550
