55
Lipophilicity 396 1.6200000047683716
C     -6.954786   -2.071879    1.535023
N     -6.013881   -2.319543    0.429894
C     -4.899331   -3.152778    0.914628
C     -5.520331   -1.032748   -0.109428
C     -4.875050   -1.209108   -1.502422
C     -3.349757   -1.026388   -1.480207
N     -2.978730    0.362604   -1.195794
C     -1.611998    0.801373   -1.083048
C     -0.520850   -0.068918   -1.293955
C      0.799235    0.428322   -1.161119
N      0.998011    1.740858   -0.839241
C     -0.074467    2.542880   -0.644387
C     -0.099173    3.872324   -0.311827
C     -1.452665    4.177370   -0.240549
N     -2.185043    3.070389   -0.520378
N     -1.326807    2.091059   -0.762712
C      1.015493    4.751056   -0.086269
N      1.913466    5.457904    0.094785
N      1.930882   -0.432165   -1.389576
C      1.987786   -1.450644   -2.285073
C      3.247313   -2.035756   -2.287390
C      3.973527   -1.336943   -1.349421
C      5.294303   -1.494074   -0.941455
C      5.782155   -0.636063    0.057728
C      4.940124    0.345025    0.645027
N      5.427729    1.237376    1.661538
C      6.410198    0.880592    2.645747
O      6.723116   -0.325867    2.834983
C      6.997426    1.935650    3.524929
C      3.611296    0.485616    0.188725
C      3.156268   -0.371074   -0.820568
H     -7.836056   -1.502465    1.167866
H     -7.338830   -3.033960    1.938696
H     -6.469014   -1.500027    2.357799
H     -4.286173   -2.612609    1.670115
H     -5.286318   -4.090234    1.368438
H     -4.253155   -3.461024    0.067465
H     -6.375662   -0.331193   -0.239019
H     -4.824786   -0.541037    0.609187
H     -5.308566   -0.469529   -2.211614
H     -5.114528   -2.214221   -1.914132
H     -2.900860   -1.694381   -0.715378
H     -2.946836   -1.311577   -2.475980
H     -3.735874    1.070299   -1.059540
H     -0.681222   -1.108850   -1.541028
H     -1.878165    5.142602   -0.000072
H      1.171283   -1.744175   -2.932099
H      3.585673   -2.859396   -2.902526
H      5.930607   -2.249146   -1.385032
H      6.818198   -0.724767    0.355059
H      4.986658    2.182007    1.737393
H      7.182773    2.858398    2.935916
H      7.960619    1.588431    3.954949
H      6.291153    2.164380    4.349685
H      2.963622    1.226023    0.635662
