42
Lipophilicity 283 3.5
C     -5.313581    2.863208   -0.286613
O     -4.701770    1.689597   -0.812012
C     -3.551444    1.084837   -0.280286
C     -2.887210    1.605929    0.844310
C     -1.746230    0.977082    1.348709
N     -1.104022    1.513806    2.417742
C      0.012766    0.937508    2.924336
N      0.499973   -0.201164    2.373010
C     -0.099063   -0.796947    1.305652
N      0.453111   -2.023439    0.793005
C      1.848772   -2.396791    1.014062
C      2.757180   -1.480431    0.240472
C      2.842619   -1.594419   -1.155573
C      3.647518   -0.716430   -1.885524
C      4.371143    0.282568   -1.229415
C      4.302893    0.402839    0.166893
C      5.040503    1.505230    0.867301
C      3.480728   -0.470540    0.896210
C     -1.254482   -0.201149    0.744915
C     -1.909260   -0.707034   -0.394755
C     -3.058452   -0.070230   -0.904654
O     -3.738776   -0.553343   -2.034532
C     -3.361455   -1.709934   -2.774726
H     -4.602997    3.715583   -0.328059
H     -5.640828    2.687545    0.759939
H     -6.203605    3.113184   -0.899555
H     -3.245942    2.503446    1.330822
H      0.512751    1.382849    3.773249
H     -0.154026   -2.714528    0.301038
H      2.010720   -3.442018    0.671140
H      2.079226   -2.373853    2.101433
H      2.278056   -2.357186   -1.677708
H      3.704513   -0.805419   -2.962715
H      4.981614    0.963345   -1.809809
H      4.386521    2.399274    0.938574
H      5.335550    1.189422    1.890650
H      5.964030    1.774889    0.311938
H      3.402001   -0.361106    1.971406
H     -1.527170   -1.576444   -0.903762
H     -3.388300   -2.607467   -2.121291
H     -2.344883   -1.575823   -3.201153
H     -4.078691   -1.856445   -3.608034
