31
Lipophilicity 624 0.8500000238418579
C     -4.071514   -0.190407    1.024651
C     -3.192782    1.020656    0.689473
C     -3.704204    1.758597   -0.518612
O     -3.607508    3.014082   -0.571186
O     -4.238774    1.062800   -1.600162
C     -1.747360    0.609733    0.492062
C     -0.760345    1.059319    1.384190
C      0.574120    0.681603    1.215905
C      0.952352   -0.152700    0.150666
C     -0.036075   -0.612193   -0.740298
F      0.280988   -1.456565   -1.754721
C     -1.371065   -0.233664   -0.569062
C      2.374266   -0.539728   -0.018463
C      3.126863   -0.981746    1.085089
C      4.469169   -1.340397    0.927548
C      5.073933   -1.257301   -0.328931
C      4.338020   -0.813493   -1.430241
C      2.995169   -0.454379   -1.278190
H     -4.072660   -0.931208    0.196985
H     -3.695997   -0.687025    1.944908
H     -5.116842    0.138093    1.208920
H     -3.266618    1.713945    1.557617
H     -4.566992    1.553754   -2.423104
H     -1.020829    1.706418    2.212506
H      1.315867    1.054634    1.911445
H     -2.113543   -0.604684   -1.263724
H      2.672174   -1.062181    2.064736
H      5.040312   -1.684421    1.780166
H      6.113278   -1.534573   -0.448703
H      4.809514   -0.743237   -2.401980
H      2.447084   -0.093732   -2.139614
