47
Lipophilicity 244 1.100000023841858
N     -7.568649   -0.461383   -1.719069
C     -6.262591    0.106073   -1.583059
O     -6.001079    1.183308   -2.182586
C     -5.217985   -0.521221   -0.744643
C     -5.298301   -1.854638   -0.313349
N     -4.299741   -2.372551    0.447228
C     -3.218428   -1.631947    0.801328
C     -3.119998   -0.300339    0.363615
O     -2.032714    0.529538    0.679237
C     -0.861036    0.137501    1.401201
C      0.046324   -0.774511    0.518863
C      1.045462    0.034535   -0.339140
C      0.312374    1.009586   -1.273790
C      0.222513    2.300577   -0.465231
C      0.897824    1.953469    0.870276
C     -0.125652    1.415047    1.897087
N      1.829514    0.857468    0.589249
C      3.102082    1.335301    0.005497
C      4.118033    0.224392   -0.003650
C      4.627309   -0.270770    1.208091
C      5.556136   -1.315999    1.207008
C      5.979703   -1.875335   -0.001754
C      5.473826   -1.391394   -1.211409
C      4.544926   -0.346099   -1.214853
N     -4.124201    0.210296   -0.396401
H     -7.891449   -1.258134   -1.129082
H     -8.260448   -0.020354   -2.365079
H     -6.125257   -2.492312   -0.589005
H     -2.450426   -2.088863    1.407844
H     -1.175349   -0.425914    2.306824
H     -0.566270   -1.425690   -0.139917
H      0.628511   -1.446380    1.186962
H      1.682081   -0.671218   -0.917392
H     -0.691022    0.638611   -1.575916
H      0.913005    1.176566   -2.194457
H     -0.828616    2.638579   -0.336990
H      0.792058    3.107914   -0.975460
H      1.410980    2.841671    1.303152
H      0.422745    1.169794    2.833341
H     -0.862957    2.207668    2.151309
H      2.957009    1.748969   -1.017116
H      3.517179    2.159467    0.626767
H      4.302393    0.151628    2.151071
H      5.946135   -1.693655    2.143372
H      6.697979   -2.684988   -0.000950
H      5.799744   -1.827983   -2.146631
H      4.156326    0.013720   -2.159445
