72
Lipophilicity 1261 4.0
C     11.806916    1.406352   -0.115160
O     10.480427    1.060205   -0.493237
C      9.648111    0.270971    0.308553
O     10.065537   -0.160458    1.419624
C      8.278442   -0.053826   -0.147830
C      7.420682   -0.832236    0.650356
C      6.124845   -1.129057    0.217945
C      5.666564   -0.661912   -1.022867
C      4.252893   -0.938442   -1.462009
C      3.301614    0.068791   -0.870843
O      3.608568    1.291548   -0.894675
N      2.022323   -0.333132   -0.341326
C      1.298802   -1.436756   -0.985788
C      1.417546    0.451525    0.756265
C      0.338296    1.427521    0.225849
C     -1.018490    1.222428    0.895786
N     -1.352113   -0.210792    0.853977
C     -2.790102   -0.446670    1.105645
C     -3.588461   -0.321591   -0.202691
C     -5.085556   -0.661638   -0.007207
C     -5.845591   -0.803526   -1.317531
C     -6.867554   -1.767410   -1.415414
C     -7.610515   -1.899993   -2.591572
C     -7.352415   -1.066167   -3.681066
C     -6.357118   -0.091518   -3.593166
C     -5.611456    0.047097   -2.418883
C     -5.786064    0.332885    0.901761
C     -6.367749   -0.106167    2.105804
C     -7.013552    0.799766    2.952320
C     -7.089863    2.150277    2.606065
C     -6.518491    2.598987    1.413516
C     -5.871099    1.697921    0.563380
C     -0.512761   -0.978799    1.801800
C      0.939720   -0.455636    1.918523
C      6.516783    0.120437   -1.818622
C      7.812562    0.419465   -1.386624
H     11.795296    1.974238    0.838793
H     12.257816    2.040041   -0.905565
H     12.419378    0.488667    0.003108
H      7.746929   -1.206130    1.612679
H      5.475527   -1.717974    0.853520
H      4.175038   -0.901766   -2.570025
H      3.974073   -1.965753   -1.146067
H      1.475560   -1.423770   -2.082335
H      1.643124   -2.406055   -0.568516
H      0.206594   -1.344885   -0.838805
H      2.217414    1.083096    1.207468
H      0.214271    1.303360   -0.872142
H      0.662817    2.477493    0.394755
H     -0.993951    1.596034    1.946125
H     -1.766596    1.829349    0.343617
H     -2.951490   -1.477754    1.495294
H     -3.180361    0.261957    1.872523
H     -3.476089    0.705659   -0.602147
H     -3.152462   -1.024285   -0.947746
H     -5.100801   -1.663568    0.479456
H     -7.092279   -2.416894   -0.578112
H     -8.391182   -2.646672   -2.657146
H     -7.928582   -1.170182   -4.590650
H     -6.166184    0.562474   -4.434074
H     -4.858911    0.821009   -2.381089
H     -6.321173   -1.149481    2.392298
H     -7.457965    0.452991    3.876165
H     -7.592434    2.849310    3.261290
H     -6.577838    3.645921    1.146381
H     -5.436900    2.069196   -0.354228
H     -0.963672   -0.973587    2.820623
H     -0.483492   -2.037819    1.465325
H      1.637537   -1.311589    2.041190
H      1.009054    0.134578    2.858823
H      6.173883    0.506084   -2.770806
H      8.446371    1.026257   -2.021165
