42
Lipophilicity 1583 2.4200000762939453
C     -7.366993    0.041527    1.004648
O     -6.149759    0.776206    0.926941
C     -4.955562    0.275316    0.387567
C     -3.831914    1.107039    0.373421
C     -2.617508    0.656174   -0.151580
C     -2.502748   -0.647034   -0.671837
C     -3.637940   -1.477881   -0.664219
C     -4.851131   -1.025010   -0.137815
C     -1.224740   -1.151329   -1.242128
O     -1.257893   -2.115318   -2.056498
C      0.113877   -0.523487   -0.911687
C      0.507704    0.525817   -1.985450
C      2.026416    0.615857   -2.215188
N      2.755314    0.336004   -0.972106
C      2.525590   -0.948177   -0.288184
C      1.207164   -1.597916   -0.740710
C      3.451010    1.399867   -0.294521
O      2.991868    2.572903   -0.341486
C      4.685071    1.157893    0.472138
O      5.141175    1.983476    1.386440
C      6.261983    1.499908    1.870025
C      6.561821    0.308120    1.243427
C      5.547577    0.085965    0.337299
H     -8.145039    0.677628    1.474087
H     -7.706927   -0.242968   -0.013555
H     -7.225852   -0.866347    1.628411
H     -3.901570    2.112940    0.768032
H     -1.781744    1.341048   -0.162436
H     -3.586108   -2.485744   -1.057358
H     -5.700661   -1.694173   -0.144152
H      0.035279   -0.009502    0.071836
H      0.133955    1.523024   -1.667428
H      0.026989    0.293393   -2.961722
H      2.325125   -0.136501   -2.977484
H      2.291624    1.614208   -2.627087
H      2.471581   -0.780823    0.810561
H      3.363284   -1.644604   -0.495843
H      1.371591   -2.129678   -1.704224
H      0.891413   -2.349392    0.016109
H      6.851994    1.978061    2.640346
H      7.426807   -0.317800    1.416978
H      5.477877   -0.738692   -0.357525
