41
Lipophilicity 917 0.699999988079071
C      4.020639    1.494609   -0.097057
C      4.008674   -0.038492   -0.170422
C      5.414715   -0.565353   -0.479110
C      3.483347   -0.655857    1.140811
N      2.101073   -0.250466    1.398644
C      0.998894   -0.734265    0.611075
N      1.165813   -1.850590   -0.149018
C      0.147212   -2.379996   -0.869183
N     -1.074724   -1.795209   -0.846720
C     -1.306298   -0.670637   -0.120004
N     -2.607969   -0.068664   -0.162972
C     -2.794698    1.206986   -0.864835
C     -3.897968    2.060174   -0.199878
N     -4.784393    1.282678    0.684808
C     -5.055595   -0.049136    0.138232
C     -3.774549   -0.883464    0.192689
C     -0.264225   -0.102832    0.641369
N     -0.493478    1.081294    1.419848
C      0.362550   -3.562081   -1.653752
N      0.536335   -4.515271   -2.286435
H      4.405176    1.920663   -1.048250
H      4.665747    1.842498    0.738222
H      2.991629    1.882922    0.057671
H      3.342086   -0.342250   -1.007136
H      5.779547   -0.145146   -1.440689
H      6.125217   -0.284548    0.328060
H      5.396885   -1.672241   -0.572648
H      4.125451   -0.329274    1.988723
H      3.538368   -1.765435    1.093635
H      1.926560    0.342898    2.239035
H     -1.845749    1.785755   -0.897712
H     -3.083894    0.989803   -1.916117
H     -4.495725    2.564065   -0.992738
H     -3.418404    2.857332    0.407592
H     -5.694378    1.793956    0.765658
H     -5.843810   -0.548963    0.742382
H     -5.423294    0.027026   -0.910533
H     -3.861725   -1.749344   -0.498638
H     -3.641707   -1.268023    1.227514
H     -1.462047    1.400840    1.641186
H      0.288712    1.694041    1.735496
