43
Lipophilicity 71 2.059999942779541
C     -4.502905   -2.835195    0.908742
O     -3.697483   -1.798664    0.357364
C     -3.863793   -0.429009    0.623279
C     -4.861471    0.034186    1.505552
C     -4.977175    1.395822    1.793265
F     -5.937410    1.828571    2.647202
C     -4.100783    2.310492    1.210678
C     -3.112805    1.869108    0.329445
C     -2.994295    0.504667    0.012531
C     -1.937190    0.080371   -0.934527
C     -2.199506   -0.843446   -1.959758
C     -1.175033   -1.207449   -2.834879
C      0.093262   -0.643487   -2.695765
C      0.317632    0.299081   -1.683989
C      1.675634    0.903766   -1.489427
N      2.527941   -0.025632   -0.737802
C      3.902282    0.492330   -0.587487
C      4.847183   -0.655506   -0.259439
C      4.849566   -0.769297    1.256612
C      4.480871    0.610314    1.794582
C      4.034581    1.451903    0.601098
N     -0.693275    0.627296   -0.833513
H     -5.562607   -2.696643    0.607247
H     -4.149018   -3.812699    0.522087
H     -4.415956   -2.838574    2.015756
H     -5.546288   -0.652848    1.983219
H     -4.187975    3.364976    1.439123
H     -2.448409    2.597138   -0.120198
H     -3.187627   -1.264577   -2.094379
H     -1.365505   -1.923655   -3.623691
H      0.889409   -0.932081   -3.370868
H      1.574633    1.869723   -0.947949
H      2.121640    1.114081   -2.486837
H      2.103242   -0.193169    0.205914
H      4.243188    0.982679   -1.528346
H      4.532955   -1.608249   -0.739577
H      5.872670   -0.401231   -0.609244
H      5.845083   -1.095298    1.628961
H      4.085160   -1.512661    1.574066
H      3.656489    0.523423    2.536044
H      5.357857    1.081161    2.290603
H      4.816736    2.209258    0.372272
H      3.088493    1.989024    0.825270
