43
Lipophilicity 822 2.799999952316284
C     -3.435907   -1.591635    2.931362
N     -2.377983   -1.450781    1.939494
C     -1.196252   -2.304563    1.826751
C     -0.369644   -1.728312    0.646722
C     -1.186009   -0.565683    0.185210
C     -0.902679    0.365615   -0.816254
N      0.300864    0.237378   -1.582609
C      1.405442    1.132765   -1.398440
O      1.250887    2.218640   -0.775202
C      2.771645    0.740117   -1.868357
C      3.425716   -0.139170   -0.837874
C      3.213831   -1.528567   -0.852379
C      3.772368   -2.337227    0.142221
C      4.541501   -1.765454    1.159287
C      4.749730   -0.383422    1.186160
C      4.189958    0.429247    0.195280
C     -1.831717    1.414692   -1.031120
C     -1.658426    2.371061   -2.048629
C     -2.596749    3.392799   -2.221457
C     -3.719002    3.469009   -1.392471
C     -3.917109    2.520039   -0.386126
C     -2.989165    1.490062   -0.198984
N     -3.198023    0.559642    0.778326
C     -2.306235   -0.447809    0.949838
H     -3.220505   -2.448955    3.602489
H     -3.501225   -0.666800    3.541509
H     -4.404930   -1.767156    2.420655
H     -0.609884   -2.265112    2.769986
H     -1.504386   -3.351453    1.616122
H     -0.263295   -2.474866   -0.169455
H      0.629355   -1.383738    0.991086
H      0.479345   -0.678324   -2.052562
H      3.386287    1.649906   -2.045912
H      2.693958    0.205464   -2.839856
H      2.611173   -1.983997   -1.627653
H      3.605144   -3.406990    0.126828
H      4.971980   -2.392756    1.929093
H      5.339827    0.059027    1.978117
H      4.346558    1.500028    0.235801
H     -0.806369    2.331311   -2.714599
H     -2.454335    4.127770   -3.002926
H     -4.440854    4.263139   -1.534477
H     -4.794882    2.585060    0.245007
