56
Lipophilicity 1849 2.240000009536743
C     -6.331733   -3.004651    2.240441
C     -6.018310   -2.024684    1.157297
O     -6.959749   -1.398455    0.599943
N     -4.650556   -1.736194    0.829134
C     -4.240205   -0.955827   -0.306667
C     -4.958775   -0.999521   -1.530874
C     -4.544671   -0.232737   -2.633153
C     -3.397382    0.541894   -2.494940
C     -2.797134    1.406382   -3.384417
C     -1.701459    1.926775   -2.706572
N     -1.613884    1.398368   -1.462266
C     -0.591528    1.709764   -0.503402
C      0.034876    0.684600    0.244387
C      1.055352    1.022592    1.157681
N      1.737267    0.035665    1.955028
C      1.665380   -1.407978    1.726323
C      2.362961   -1.814356    0.419567
N      3.831005   -1.679848    0.530031
C      4.303254   -0.297150    0.354883
C      5.655160   -0.355444   -0.349726
C      5.870309   -1.814599   -0.701092
C      4.514467   -2.459455   -0.504725
N      1.387048    2.336015    1.261908
N      2.319346    2.871421    2.035348
C      2.318638    4.205121    1.789137
C      1.358389    4.502721    0.830230
C      1.036488    5.789386    0.276512
N      0.777085    6.825118   -0.169524
C      0.799275    3.287703    0.529841
N     -0.181396    3.004672   -0.359523
C     -2.665430    0.559161   -1.335747
C     -3.071776   -0.169670   -0.212490
H     -7.366291   -3.391621    2.123774
H     -6.237663   -2.506612    3.227734
H     -5.625121   -3.859691    2.193223
H     -3.914610   -2.044863    1.504336
H     -5.827933   -1.633976   -1.638723
H     -5.101330   -0.247311   -3.561457
H     -3.115735    1.640551   -4.391553
H     -1.000800    2.644641   -3.113999
H     -0.257882   -0.343816    0.091751
H      2.329067    0.363445    2.751248
H      2.153944   -1.938752    2.572490
H      0.603621   -1.733406    1.712490
H      2.103078   -2.882512    0.242358
H      1.963374   -1.243603   -0.447253
H      4.417957    0.183806    1.349458
H      3.601135    0.313085   -0.257887
H      5.635683    0.264741   -1.272986
H      6.467980    0.010345    0.315405
H      6.230625   -1.936949   -1.745809
H      6.605488   -2.267704    0.000212
H      4.626023   -3.516131   -0.179010
H      3.956571   -2.427964   -1.470199
H      2.978158    4.912661    2.273928
H     -2.527653   -0.115149    0.720189
