58
Lipophilicity 333 3.0
C     -0.879159    0.612915   -4.104457
O     -0.184178    0.699222   -2.864628
C     -0.765970    0.475181   -1.605833
C     -2.122986    0.122548   -1.465665
C     -2.684192   -0.097283   -0.195057
C     -1.869790    0.042191    0.939442
C     -0.525704    0.392446    0.809313
C      0.040115    0.596093   -0.459385
N      1.419152    0.982719   -0.593455
C      2.484556    0.432622    0.194172
N      2.281939   -0.665387    0.972250
C      3.291561   -1.200000    1.705148
C      4.563343   -0.632073    1.657267
C      4.771209    0.476337    0.827576
N      3.723608    0.989037    0.127681
C      6.085575    1.141111    0.744837
C      6.291108    2.510201    0.694209
N      7.616878    2.776113    0.633605
C      8.185549    1.553153    0.635545
C      9.553110    1.297449    0.553751
C      9.966455   -0.042904    0.517834
C      9.015869   -1.079700    0.548923
C      7.651644   -0.765155    0.629265
N      7.293450    0.546640    0.694060
N     -4.074744   -0.464940   -0.056997
C     -5.080571    0.078561   -0.980988
C     -6.428593    0.258345   -0.273201
N     -6.817014   -0.942029    0.485617
C     -5.859669   -2.046457    0.641916
C     -4.456771   -1.498023    0.918873
C     -8.163103   -1.075225    0.992994
O     -8.574300   -2.192928    1.408384
C     -9.108235    0.088742    1.016375
H     -1.271678   -0.415434   -4.251619
H     -0.176350    0.845456   -4.930322
H     -1.711144    1.348048   -4.128236
H     -2.742338    0.000087   -2.342688
H     -2.277651   -0.097661    1.931590
H      0.066931    0.529624    1.704374
H      1.677618    1.647524   -1.357351
H      3.104082   -2.061500    2.331990
H      5.355428   -1.033244    2.275751
H      5.522037    3.271179    0.713523
H     10.273184    2.104326    0.509122
H     11.020318   -0.279790    0.451214
H      9.334632   -2.112728    0.499667
H      6.913616   -1.554658    0.613147
H     -5.200060   -0.615791   -1.840786
H     -4.756890    1.068454   -1.371114
H     -6.360832    1.122334    0.422353
H     -7.196201    0.482733   -1.044759
H     -6.145642   -2.708612    1.487787
H     -5.848667   -2.655429   -0.287930
H     -4.436935   -1.062779    1.940997
H     -3.732674   -2.340969    0.877596
H     -8.612095    0.972625    1.467861
H     -9.431485    0.330378   -0.017189
H    -10.007349   -0.153695    1.622028
