34
Lipophilicity 428 1.8899999856948853
C      0.338218   -1.587851    0.024441
C     -0.301115   -0.497300   -0.882616
N     -1.152369   -1.173681   -1.882335
C     -1.914539   -0.213156   -2.683590
C     -2.955210    0.489437   -1.813783
C     -2.330463    1.036855   -0.559789
C     -3.023334    2.019111    0.165633
C     -2.461933    2.576944    1.313691
C     -1.199848    2.168727    1.740030
C     -0.507095    1.181120    1.036755
C     -1.080823    0.558942   -0.089894
C      1.736482   -1.256642    0.493208
C      2.778571   -1.093287   -0.437026
C      4.078621   -0.820227   -0.000791
C      4.353642   -0.725097    1.365650
C      3.330664   -0.911520    2.298699
C      2.029314   -1.185801    1.867124
H     -0.333909   -1.797493    0.885928
H      0.414205   -2.543440   -0.540286
H      0.501674    0.036941   -1.436015
H     -1.826984   -1.812750   -1.396183
H     -2.429386   -0.751711   -3.507876
H     -1.229914    0.533371   -3.145044
H     -3.417940    1.311607   -2.402173
H     -3.753722   -0.230908   -1.532813
H     -3.994399    2.363673   -0.168616
H     -2.997469    3.341222    1.861982
H     -0.751491    2.625556    2.612948
H      0.483387    0.923439    1.371176
H      2.585804   -1.182744   -1.498832
H      4.874351   -0.688173   -0.722489
H      5.360776   -0.514721    1.701603
H      3.546659   -0.846979    3.357304
H      1.249572   -1.333465    2.603979
