22
Lipophilicity 1178 0.8999999761581421
N      2.930227   -0.003358   -0.342542
C      2.090389   -0.003034    0.814115
O      2.616256   -0.008363    1.959278
C      0.587386   -0.003068    0.686221
C      0.093742    1.234136   -0.085022
C     -1.447074    1.315494   -0.096686
C     -2.137302   -0.062754   -0.034794
C     -1.278740   -1.157234   -0.677190
C      0.079090   -1.315989    0.038044
H      2.525057   -0.016617   -1.304320
H      3.968897    0.000312   -0.236403
H      0.157473    0.058056    1.712609
H      0.459139    1.189674   -1.134478
H      0.503782    2.159751    0.375656
H     -1.790430    1.922595    0.769234
H     -1.767947    1.847143   -1.019052
H     -3.119843   -0.009081   -0.551560
H     -2.331353   -0.334171    1.026415
H     -1.107024   -0.897680   -1.745281
H     -1.827097   -2.123672   -0.651425
H      0.811664   -1.704417   -0.702745
H     -0.016293   -2.087723    0.833253
