37
Lipophilicity 990 2.4000000953674316
C     -5.391818   -0.363708    1.306225
C     -3.913870   -0.594047    1.371861
O     -3.467715   -1.461410    2.170537
N     -3.000794    0.202336    0.590146
C     -3.292328    1.622204    0.337217
C     -2.015892    2.454784    0.494827
O     -0.956988    1.902451   -0.286379
C     -0.783816    0.521852   -0.415192
N      0.347837    0.033918   -0.987260
C      0.553209   -1.302349   -1.151680
O      1.732726   -1.782174   -1.732343
C      2.808234   -0.938405   -2.140025
C      3.513791   -0.367784   -0.939614
C      3.448498    1.006915   -0.655814
C      4.088988    1.522966    0.475102
C      4.796232    0.672272    1.329217
C      4.863073   -0.696487    1.054577
C      4.223220   -1.216742   -0.074787
C     -0.427077   -2.208652   -0.741238
C     -1.604317   -1.734705   -0.158936
C     -1.789565   -0.353531    0.027442
H     -5.934630   -1.310102    1.513467
H     -5.679490   -0.008213    0.294624
H     -5.685260    0.394111    2.061964
H     -3.686482    1.735892   -0.695550
H     -4.052449    2.008637    1.050063
H     -1.711633    2.458673    1.563753
H     -2.201630    3.502099    0.176733
H      2.427390   -0.137553   -2.811257
H      3.530866   -1.543413   -2.727217
H      2.899649    1.677600   -1.305186
H      4.035450    2.582341    0.690340
H      5.290874    1.073302    2.204398
H      5.408942   -1.354805    1.717978
H      4.277338   -2.279840   -0.274699
H     -0.281049   -3.272136   -0.881474
H     -2.369512   -2.446300    0.118702
