56
Lipophilicity 1967 0.8999999761581421
C      1.175462   -1.758106    0.234098
C      1.255363   -0.343425   -0.328629
C      1.702442    0.625698    0.739415
C      0.908332    1.152583    1.752471
C      1.797275    1.675453    2.672064
N      3.055945    1.479314    2.239860
N      2.995585    0.851627    1.075513
C      4.168194    0.431742    0.363324
C      4.354398    0.789439   -0.979472
C      5.509671    0.396776   -1.661420
C      6.504940   -0.348932   -1.006195
C      6.323575   -0.686598    0.347212
C      5.167479   -0.292063    1.026794
C      7.726091   -0.764149   -1.730963
O      8.621810   -1.429983   -1.144240
O      7.897533   -0.423262   -3.070243
C     -0.554407    1.089570    1.921986
O     -1.030682    0.980799    3.084405
N     -1.433685    1.220118    0.795713
C     -2.884637    1.016482    0.909846
C     -3.233638   -0.470939    1.195024
C     -2.844228   -1.358185   -0.010517
C     -3.609786   -0.896619   -1.269311
C     -5.129746   -1.009000   -1.018454
C     -5.522239   -0.117238    0.179808
C     -5.155770    1.352941   -0.132450
C     -3.632398    1.469608   -0.376122
C     -3.249665    0.571488   -1.579514
C     -4.756567   -0.588286    1.437621
H      2.174449   -2.085477    0.593792
H      0.451793   -1.799011    1.076188
H      0.836111   -2.456080   -0.559948
H      0.269477   -0.055895   -0.736671
H      1.957646   -0.339015   -1.184323
H      1.544636    2.152340    3.609881
H      3.609677    1.383894   -1.493615
H      5.624976    0.682850   -2.699272
H      7.074896   -1.254326    0.881776
H      5.043497   -0.560234    2.068521
H      8.729746   -0.702631   -3.575855
H     -1.041263    1.638661   -0.076594
H     -3.246298    1.641240    1.758054
H     -2.697437   -0.826122    2.100920
H     -3.084766   -2.421532    0.209363
H     -1.751056   -1.302812   -0.190906
H     -3.327540   -1.538616   -2.131884
H     -5.689541   -0.693802   -1.926394
H     -5.403607   -2.066923   -0.811343
H     -6.616356   -0.197243    0.359339
H     -5.712335    1.700089   -1.030709
H     -5.458145    2.007118    0.714667
H     -3.379069    2.527767   -0.605445
H     -2.166249    0.653284   -1.808253
H     -3.794365    0.908696   -2.488767
H     -5.051598    0.029079    2.314450
H     -5.023928   -1.642154    1.672318
