52
Lipophilicity 1934 3.190000057220459
C     -6.922425    1.523258   -3.734502
C     -6.827707    0.709810   -2.485968
C     -7.848382    0.003729   -1.893784
N     -7.362662   -0.657615   -0.825353
C     -6.045671   -0.346590   -0.801637
N     -5.691631    0.482369   -1.808964
C     -5.112800   -0.866726    0.229715
C     -5.618964   -1.543353    1.350839
C     -4.757644   -2.047791    2.326011
C     -3.370294   -1.877677    2.210321
C     -2.463056   -2.435648    3.273180
C     -2.845331   -1.201376    1.088060
N     -1.422839   -1.065922    0.921730
C     -0.788556    0.166693    0.533403
O     -1.489073    1.194993    0.324169
C      0.682988    0.256322    0.378035
C      1.235609    1.187342   -0.518443
C      2.621022    1.289786   -0.674458
C      3.482043    0.466432    0.073725
O      4.878060    0.530001   -0.046335
C      5.572095    1.412552   -0.923425
C      7.044802    1.190032   -0.781724
C      7.665542    0.102395   -1.413000
C      9.036051   -0.099868   -1.236909
C      9.769286    0.772757   -0.430822
C      9.115896    1.838120    0.192849
N      7.780447    2.019516    0.009562
C      2.933858   -0.450422    0.976274
C      1.548729   -0.555310    1.132765
C     -3.720889   -0.712888    0.101994
H     -6.168499    2.337870   -3.713977
H     -6.734144    0.873302   -4.614025
H     -7.933695    1.973520   -3.821398
H     -8.879753   -0.033486   -2.218734
H     -4.752160    0.880757   -2.026775
H     -6.685191   -1.684857    1.476458
H     -5.177826   -2.570551    3.176514
H     -3.030456   -2.713179    4.187057
H     -1.703038   -1.679531    3.563418
H     -1.950735   -3.341297    2.886441
H     -0.833773   -1.903598    1.121294
H      0.594017    1.829445   -1.109542
H      3.010984    2.011917   -1.378613
H      5.264888    1.220563   -1.974717
H      5.327478    2.466155   -0.666042
H      7.094517   -0.578870   -2.031700
H      9.528125   -0.933139   -1.721665
H     10.831567    0.623077   -0.287496
H      9.669621    2.519203    0.825103
H      3.586710   -1.081168    1.566545
H      1.165757   -1.252027    1.865902
H     -3.302896   -0.249025   -0.779313
