66
Lipophilicity 1228 0.9700000286102295
C      1.214310   -1.911915   -3.321398
O      1.264402   -0.522728   -3.063160
C      0.587338   -0.204594   -1.856446
C     -0.888529    0.132003   -2.171633
N     -1.673235    0.469879   -0.954360
C     -2.461602   -0.677799   -0.454825
C     -3.822363   -0.743865   -1.164956
N     -4.627202    0.467584   -0.881056
C     -4.632947    1.491153   -1.802456
O     -3.982170    1.401788   -2.879096
C     -5.363376    2.654711   -1.562392
N     -6.061901    2.787288   -0.413789
C     -6.073188    1.806083    0.518861
C     -6.810506    1.986149    1.691760
C     -6.838613    0.989112    2.664389
C     -6.132154   -0.200891    2.482581
O     -6.204639   -1.173773    3.494225
C     -5.543624   -2.435389    3.451154
C     -5.382585   -0.387622    1.303389
C     -5.343058    0.611325    0.296807
C     -0.871074    1.086056    0.128949
C      0.283354    1.918557   -0.434777
C      1.298984    1.013300   -1.182817
N      2.350852    0.559925   -0.245514
C      3.502424   -0.028589   -0.946780
C      4.605212   -0.329023    0.027457
C      4.432589   -1.303566    1.023564
C      5.468323   -1.552384    1.927125
C      6.664487   -0.839263    1.822876
O      7.707860   -1.066705    2.727980
C      9.044494   -0.597520    2.515734
C      9.080406    0.629349    1.645150
O     10.089644    1.383524    1.662165
N      8.002701    0.898789    0.743382
C      6.801474    0.128200    0.818760
N      5.777201    0.363123   -0.045304
H      0.168372   -2.269874   -3.427952
H      1.737586   -2.113041   -4.278191
H      1.737168   -2.490109   -2.528855
H      0.593753   -1.051389   -1.125909
H     -0.918128    1.004283   -2.860323
H     -1.358630   -0.703729   -2.732470
H     -2.650070   -0.587049    0.638060
H     -1.911808   -1.634894   -0.600409
H     -4.371112   -1.662972   -0.871588
H     -3.665214   -0.878977   -2.256856
H     -5.372593    3.457592   -2.288909
H     -7.365190    2.902856    1.852595
H     -7.417754    1.140782    3.567506
H     -4.442356   -2.287146    3.423568
H     -5.803940   -3.014562    4.361638
H     -5.876827   -3.012294    2.559909
H     -4.834269   -1.306697    1.194588
H     -0.449722    0.311066    0.810746
H     -1.530764    1.746984    0.730817
H     -0.134095    2.671833   -1.139810
H      0.767894    2.490469    0.386102
H      1.758561    1.650736   -1.974041
H      2.715899    1.400753    0.263487
H      3.879422    0.664350   -1.733785
H      3.212858   -0.981875   -1.430207
H      3.504442   -1.856717    1.101565
H      5.342620   -2.296537    2.703448
H      9.510702   -0.377846    3.500046
H      9.630112   -1.398532    2.017280
H      8.079793    1.680265    0.053309
