64
Lipophilicity 1348 4.099999904632568
C      4.896512    4.390616   -0.908004
C      4.598049    3.166613   -1.783573
C      5.671043    2.982843   -2.865793
C      4.451460    1.911075   -0.941527
C      5.530770    1.434582   -0.145783
C      5.386617    0.288376    0.653911
C      4.157550   -0.364243    0.643645
N      3.825631   -1.490044    1.306776
C      2.538898   -1.731517    0.963633
C      1.746245   -2.935629    1.328421
C      0.248330   -2.588698    1.298207
N     -0.146989   -1.864116    0.064553
C      0.730097   -0.859182   -0.576130
C      2.067051   -0.786841    0.084129
C      3.109935    0.089462   -0.120460
C      3.218116    1.216599   -0.929929
C     -1.488698   -1.990213   -0.455726
O     -1.697643   -1.791227   -1.683529
C     -2.665465   -2.341049    0.435523
C     -3.225498   -3.720937    0.038233
C     -4.428173   -4.102190    0.910357
C     -5.522445   -3.031756    0.839583
C     -4.978231   -1.652275    1.231305
C     -3.775805   -1.259260    0.352386
C     -3.274774    0.102193    0.775841
O     -2.475102    0.208190    1.748568
N     -3.756397    1.279202    0.113463
C     -3.410851    2.621395    0.579343
C     -3.189083    3.650993   -0.514798
C     -1.999544    3.084183    0.258114
C     -4.033830    3.102220    1.821693
N     -4.523489    3.478555    2.801627
H      4.885640    5.309285   -1.530774
H      5.889528    4.304329   -0.418662
H      4.116733    4.491744   -0.123679
H      3.639138    3.370596   -2.309962
H      5.686241    3.867410   -3.536867
H      6.679451    2.863252   -2.414715
H      5.441031    2.085498   -3.479887
H      6.478775    1.953944   -0.142802
H      6.206167   -0.070313    1.260986
H      4.436380   -2.061244    1.931733
H      1.956810   -3.739708    0.591198
H      2.034469   -3.290582    2.341976
H     -0.312885   -3.543878    1.381856
H      0.000068   -1.959663    2.180495
H      0.247356    0.139276   -0.531568
H      0.887209   -1.130864   -1.639240
H      2.374429    1.550457   -1.522929
H     -2.338975   -2.400061    1.495238
H     -3.536605   -3.716934   -1.030240
H     -2.435836   -4.492962    0.161154
H     -4.097579   -4.230156    1.963724
H     -4.841341   -5.074019    0.562227
H     -5.936617   -2.987844   -0.190317
H     -6.348050   -3.310451    1.528473
H     -5.789881   -0.899663    1.115642
H     -4.678412   -1.667238    2.301804
H     -4.125150   -1.190867   -0.702585
H     -4.458735    1.184276   -0.653662
H     -3.273539    3.267847   -1.556326
H     -3.431889    4.703759   -0.246706
H     -1.384089    2.375632   -0.342853
H     -1.554130    3.801221    0.980250
