56
Lipophilicity 323 2.6700000762939453
C     10.634275   -1.111651    2.206051
O      9.348967   -0.787415    1.691327
C      8.709031   -1.561025    0.714535
O      9.259057   -2.604118    0.266118
C      7.387501   -1.132576    0.145552
C      6.709205   -0.044514    0.991399
C      5.375623    0.330218    0.410235
O      5.318523    0.782583   -0.764458
N      4.184973    0.227608    1.204878
C      2.854193    0.262881    0.660597
C      2.563273   -0.305320   -0.584986
C      1.259965   -0.293843   -1.083494
C      0.197812    0.276809   -0.342853
C      0.499635    0.857915    0.916816
C      1.817282    0.827557    1.410104
C     -0.562783    1.511846    1.710750
O     -0.306191    2.029491    2.834373
C     -1.926854    1.571492    1.184294
O     -2.822526    2.163668    1.845575
C     -2.241671    0.931572   -0.110316
C     -3.564896    0.948180   -0.589245
C     -3.901363    0.314306   -1.793573
N     -5.259310    0.271240   -2.263013
C     -6.203113    1.336565   -2.077254
O     -5.805889    2.504325   -1.808531
C     -7.677526    1.061281   -2.172450
C     -8.315753    0.936997   -0.783575
C     -7.790756   -0.251933   -0.037300
O     -8.428779   -1.344319   -0.063045
O     -6.565120   -0.154105    0.627688
C     -5.977623   -1.247170    1.317184
C     -2.909121   -0.359379   -2.506530
C     -1.589808   -0.372736   -2.053310
C     -1.222572    0.280209   -0.853383
H     11.386441   -1.075352    1.391121
H     10.621256   -2.124652    2.657008
H     10.914435   -0.373128    2.985338
H      7.558444   -0.752650   -0.886579
H      6.719481   -2.020911    0.085931
H      7.350721    0.864887    1.024868
H      6.576893   -0.417756    2.031353
H      4.290317    0.196056    2.243375
H      3.340408   -0.783958   -1.167205
H      1.115495   -0.738832   -2.053891
H      2.047907    1.258839    2.377197
H     -4.342034    1.423815   -0.004699
H     -5.571680   -0.577516   -2.787743
H     -7.860381    0.133386   -2.753832
H     -8.165343    1.897563   -2.719433
H     -8.120711    1.857873   -0.191989
H     -9.417484    0.842711   -0.900418
H     -4.973851   -0.945728    1.682529
H     -5.867101   -2.115916    0.629954
H     -6.609317   -1.528834    2.190000
H     -3.159231   -0.873846   -3.426267
H     -0.882326   -0.916573   -2.656781
