64
Lipophilicity 2077 2.5999999046325684
C      4.771646   -3.726980   -2.441379
C      4.800809   -2.201298   -2.522654
C      4.740670   -1.525519   -1.142925
C      3.439235   -1.763729   -0.350717
C      2.197021   -1.075251   -0.962857
N      1.208261   -0.807396    0.086141
C      1.291882    0.342300    0.943900
O      2.211326    1.190681    0.781027
C      0.253811    0.573109    2.011524
C      0.293284   -0.521336    3.107619
C      1.413772   -0.332320    4.162588
C      1.112516   -1.186073    5.402095
C      2.801244   -0.698901    3.615145
N     -1.069377    0.604966    1.381062
C     -1.492729    1.696885    0.551245
O     -0.762905    2.718615    0.423650
C     -2.777336    1.594098   -0.226498
C     -2.474772    1.122870   -1.668018
C     -3.682761    0.462561   -2.374660
C     -3.240881   -0.125286   -3.720926
C     -4.844817    1.441113   -2.594723
N     -3.457828    2.894170   -0.219953
C     -4.148725    3.385682    0.936605
O     -4.216258    2.687909    1.983080
C     -4.828373    4.715380    0.892369
C      1.566378   -1.910665   -2.046496
O      1.151328   -3.034141   -1.809380
H      3.779326   -4.084968   -2.100490
H      4.962955   -4.152927   -3.447697
H      5.558555   -4.095626   -1.750131
H      5.753897   -1.901741   -3.009873
H      3.981400   -1.840847   -3.175988
H      5.597733   -1.889629   -0.534629
H      4.889009   -0.431441   -1.274376
H      3.261231   -2.848525   -0.194154
H      3.609861   -1.340695    0.662739
H      2.495414   -0.108374   -1.426030
H      0.423073   -1.480107    0.234933
H      0.432210    1.558776    2.497130
H      0.360302   -1.534707    2.654772
H     -0.683419   -0.483954    3.641033
H      1.435214    0.729952    4.490837
H      1.082684   -2.264387    5.135341
H      1.891193   -1.029915    6.179797
H      0.134082   -0.897944    5.842590
H      2.789870   -1.706616    3.148038
H      3.139187    0.047837    2.872983
H      3.552665   -0.696101    4.433158
H     -1.692754   -0.232082    1.455446
H     -3.433818    0.838448    0.259727
H     -2.085062    1.969463   -2.275348
H     -1.661224    0.362365   -1.624598
H     -4.049173   -0.379034   -1.747303
H     -2.432028   -0.870287   -3.569807
H     -4.090895   -0.641284   -4.214948
H     -2.870868    0.676390   -4.394845
H     -4.493995    2.349730   -3.127448
H     -5.301290    1.735119   -1.626928
H     -5.644733    0.961220   -3.198055
H     -3.409322    3.508193   -1.062251
H     -4.170626    5.462875    0.403279
H     -5.059693    5.069793    1.917419
H     -5.770916    4.625740    0.319114
H      1.463532   -1.506159   -3.047257
