45
Lipophilicity 863 3.299999952316284
C      7.928210    0.406151    2.212143
C      6.716143    0.362292    1.394360
C      5.717126    0.326393    0.720589
C      4.524041    0.283738   -0.083229
C      4.540476    0.758756   -1.397545
N      3.408999    0.719546   -2.148487
C      2.239576    0.228654   -1.658963
C      2.169883   -0.261883   -0.343253
C      3.333923   -0.228328    0.443441
C      0.897914   -0.801195    0.201405
C      0.898928   -1.952820    1.006064
C     -0.295387   -2.452465    1.525591
C     -1.504825   -1.815524    1.245867
C     -1.539350   -0.669865    0.428647
C     -0.324702   -0.163028   -0.076687
C     -2.865725    0.042627    0.166465
N     -2.814189    0.790024   -1.100168
C     -3.700141    0.297323   -1.895611
C     -3.925350    0.781116   -3.289454
C     -4.379983   -0.789491   -1.241329
N     -3.920657   -0.957328   -0.050370
N     -5.417584   -1.591753   -1.801523
C     -3.324531    0.998123    1.303367
C     -2.506766    1.137984    2.586840
C     -2.434888    2.217526    1.521005
H      8.817635    0.472043    1.552202
H      7.894226    1.294330    2.876003
H      7.992270   -0.514018    2.828525
H      5.450171    1.159858   -1.826662
H      1.370710    0.205872   -2.303668
H      3.311795   -0.581782    1.467815
H      1.822622   -2.473843    1.224481
H     -0.283514   -3.336462    2.150072
H     -2.415204   -2.211656    1.677675
H     -0.324503    0.742806   -0.669118
H     -3.318258    1.689885   -3.486944
H     -3.634190   -0.012482   -4.008524
H     -4.998184    1.028191   -3.429843
H     -5.755319   -1.420549   -2.774156
H     -5.847392   -2.361616   -1.242439
H     -4.405436    1.245201    1.382842
H     -1.556549    0.576498    2.688563
H     -3.092784    1.445385    3.478352
H     -1.470304    2.238172    0.972484
H     -2.978932    3.147593    1.790295
