45
Lipophilicity 1028 3.140000104904175
C     -2.750363    1.513413   -0.575892
C     -3.861042    0.656983    0.042451
C     -3.807084    0.682809    1.572223
N     -3.832749   -0.731192   -0.461491
C     -4.875397   -1.418942   -0.992684
C     -6.239700   -0.849730   -1.229355
N     -4.573783   -2.704153   -1.277991
C     -3.288080   -2.838470   -0.905268
C     -2.832396   -1.641375   -0.403885
C     -1.479008   -1.424831    0.122082
N     -0.532503   -0.860973   -0.673740
C      0.738224   -0.666705   -0.230384
N      1.710354   -0.080492   -1.107373
C      2.999079    0.394300   -0.682711
C      3.172186    1.030801    0.557107
C      4.429486    1.507540    0.937018
C      5.537674    1.361928    0.085175
C      6.860359    1.871733    0.514807
O      6.924765    2.884149    1.263065
N      8.070775    1.219122    0.124849
C      5.353664    0.760283   -1.175464
F      6.373186    0.675416   -2.066845
C      4.092643    0.286509   -1.552105
N      1.084049   -1.077681    1.020581
C      0.175954   -1.663422    1.842750
C     -1.133356   -1.857574    1.406464
F     -2.045419   -2.450053    2.218223
H     -2.985983    2.589963   -0.435289
H     -1.771695    1.321192   -0.093178
H     -2.672300    1.312400   -1.665441
H     -4.818845    1.135668   -0.253249
H     -2.828425    0.318255    1.944389
H     -4.612008    0.040763    1.988745
H     -3.959185    1.720046    1.939689
H     -6.673039   -0.502359   -0.268329
H     -6.908860   -1.622770   -1.662477
H     -6.173297    0.000564   -1.939571
H     -2.722039   -3.756910   -0.989035
H      1.491944   -0.066889   -2.129542
H      2.333009    1.182730    1.222849
H      4.537333    1.986628    1.902541
H      8.993716    1.629074    0.390198
H      8.058829    0.283306   -0.336765
H      3.965634   -0.168304   -2.526722
H      0.473692   -1.982752    2.832508
