74
Lipophilicity 1502 2.609999895095825
C      4.779086   -1.276129   -2.628519
N      4.731403   -0.740445   -1.264218
C      3.506217   -0.145720   -0.777606
C      3.498648    0.711526    0.333042
C      2.279810    1.215528    0.783490
N      1.131493    0.891311    0.139173
C      1.145683    0.085592   -0.956343
N     -0.075793   -0.297316   -1.605610
C     -1.377269    0.104634   -1.146012
C     -1.649368    1.439766   -0.827248
C     -2.918434    1.814891   -0.370107
C     -3.916417    0.839492   -0.222733
C     -3.682828   -0.513286   -0.563538
C     -2.395161   -0.852103   -1.043185
N     -4.725688   -1.528134   -0.404868
C     -5.954004   -1.178946    0.344455
C     -7.011258   -2.292987    0.428216
N     -6.437654   -3.642719    0.459670
C     -5.705804   -3.924043    1.707818
C     -5.635701   -3.868213   -0.747277
C     -4.446360   -2.908610   -0.856364
N     -3.184113    3.183411   -0.007240
C     -4.379882    3.879212   -0.502419
C     -5.103662    4.602337    0.656474
O     -4.328032    4.713658    1.840828
C     -3.000209    5.085909    1.533912
C     -2.274954    3.898554    0.891140
N      2.326390   -0.427076   -1.396640
C      5.929649   -0.756686   -0.464097
C      7.048031   -0.025746   -0.892488
C      8.213958    0.024092   -0.112967
C      9.405882    0.821886   -0.569906
O     10.567355    0.041871   -0.472146
C      8.243042   -0.637801    1.122576
C      7.142905   -1.385830    1.549629
C      5.989556   -1.477273    0.753352
C      4.829965   -2.307538    1.235139
H      4.006864   -2.063638   -2.749332
H      5.768136   -1.730464   -2.845361
H      4.593248   -0.461032   -3.359828
H      4.410664    0.984166    0.845120
H      2.246817    1.871311    1.645581
H     -0.020800   -1.065675   -2.314676
H     -0.881653    2.191571   -0.955241
H     -4.863819    1.159238    0.182143
H     -2.142847   -1.868469   -1.307735
H     -6.454127   -0.315456   -0.144342
H     -5.669496   -0.877176    1.377949
H     -7.645800   -2.131308    1.326574
H     -7.698844   -2.213467   -0.444966
H     -6.395262   -3.840183    2.574082
H     -4.854192   -3.226272    1.861176
H     -5.319749   -4.965640    1.695155
H     -5.268971   -4.918937   -0.767507
H     -6.282762   -3.748174   -1.643959
H     -4.133022   -2.891017   -1.921785
H     -3.609708   -3.324155   -0.254221
H     -5.078215    3.182945   -1.015834
H     -4.062401    4.633318   -1.258397
H     -6.020653    4.029296    0.906863
H     -5.434955    5.613515    0.327018
H     -2.478268    5.366868    2.473563
H     -2.976784    5.976033    0.861635
H     -1.939738    3.208870    1.697341
H     -1.385363    4.254451    0.330620
H      6.999267    0.514819   -1.829824
H      9.280189    1.147197   -1.628991
H      9.495169    1.732848    0.066445
H     11.328785    0.659701   -0.626069
H      9.123779   -0.582915    1.752322
H      7.194678   -1.899497    2.504261
H      4.123640   -1.666603    1.802880
H      4.299292   -2.778660    0.379613
H      5.180415   -3.124475    1.901640
