44
Lipophilicity 1945 3.5
C     -3.552545    2.380671    0.049548
C     -3.693139    1.344586    1.160246
C     -4.195251    0.028709    0.608539
C     -5.580312   -0.216844    0.606416
C     -6.095379   -1.386353    0.043845
C     -5.238016   -2.319566   -0.537772
C     -3.861895   -2.087843   -0.557755
C     -3.326337   -0.922189    0.013779
C     -1.864234   -0.723973   -0.038158
C     -1.090058   -0.846557    1.124420
C      0.295375   -0.671563    1.069204
C      0.928276   -0.395113   -0.154957
C      0.148639   -0.267517   -1.315649
C     -1.236788   -0.443175   -1.259855
C      2.391870   -0.178573   -0.225865
N      2.840491    0.938746   -0.859168
C      4.160024    1.232974   -0.972181
C      4.561947    2.399364   -1.628034
C      5.923227    2.690404   -1.731818
N      6.844804    1.844780   -1.199214
C      6.483951    0.701999   -0.556053
C      5.125605    0.365355   -0.425607
C      4.705221   -0.808801    0.222691
O      5.664723   -1.677877    0.754362
C      3.325336   -1.092119    0.320257
C      2.883842   -2.333930    0.915625
N      2.530239   -3.328006    1.391329
H     -4.532908    2.550241   -0.444805
H     -3.200314    3.341613    0.479998
H     -2.815076    2.041053   -0.707867
H     -2.718293    1.218171    1.672615
H     -4.399193    1.733615    1.926115
H     -6.265740    0.504348    1.034528
H     -7.162900   -1.564953    0.051209
H     -5.640671   -3.222792   -0.977737
H     -3.209617   -2.821388   -1.016426
H     -1.561265   -1.069889    2.073854
H      0.870809   -0.738034    1.984010
H      0.615121   -0.043052   -2.267161
H     -1.822428   -0.350679   -2.166382
H      3.829387    3.074858   -2.052345
H      6.248036    3.590430   -2.236516
H      7.258515    0.063314   -0.151691
H      5.426919   -2.534445    1.238687
