45
Lipophilicity 474 2.9200000762939453
C     -5.738157   -2.520854    1.777193
O     -5.928454   -1.549738    0.753388
C     -4.886799   -0.916246    0.059474
C     -5.215989    0.020479   -0.924192
C     -4.214517    0.679475   -1.642178
C     -2.855998    0.420136   -1.384584
C     -2.528895   -0.532008   -0.401392
C     -3.531744   -1.190650    0.316149
C     -1.815254    1.134601   -2.176132
O     -2.113035    1.532511   -3.335919
C     -0.413037    1.423203   -1.673498
C      0.527617    0.195042   -1.803337
C      1.418322   -0.027500   -0.570016
N      1.934918    1.250408   -0.055310
C      1.029228    2.391368    0.147716
C     -0.407662    2.054554   -0.267402
C      3.332148    1.410758    0.257520
O      3.895603    2.513043    0.015441
C      4.124480    0.317942    0.867470
C      5.496942    0.199148    0.585749
C      6.252146   -0.823722    1.167936
C      5.648132   -1.729381    2.043985
F      6.382382   -2.719426    2.608662
C      4.288652   -1.609343    2.343729
C      3.529712   -0.588333    1.763490
H     -5.198928   -3.402790    1.371424
H     -5.167854   -2.078922    2.621411
H     -6.728435   -2.851462    2.151888
H     -6.255355    0.240024   -1.133553
H     -4.504616    1.403536   -2.393618
H     -1.503640   -0.785138   -0.186037
H     -3.241798   -1.914771    1.065268
H      0.005593    2.208798   -2.345328
H     -0.043656   -0.737386   -2.001939
H      1.187294    0.344111   -2.686780
H      0.830504   -0.527673    0.228118
H      2.250197   -0.708407   -0.854005
H      1.040171    2.687417    1.218932
H      1.383261    3.255303   -0.456385
H     -1.015153    2.985952   -0.269315
H     -0.843917    1.368129    0.486389
H      5.981368    0.889804   -0.093518
H      7.306378   -0.912916    0.939196
H      3.822708   -2.303221    3.031552
H      2.485140   -0.495853    2.030912
