65
Lipophilicity 751 3.0
C      5.455482    1.336869   -2.885010
C      4.159495    1.483108   -2.097890
C      4.393454    1.716851   -0.593049
C      4.643289    0.419903    0.159625
C      5.990083   -0.038608    0.338873
O      7.092459    0.695075   -0.113569
C      6.253775   -1.270435    0.984822
C      5.183688   -2.031673    1.459957
C      3.879159   -1.597487    1.302653
C      3.571788   -0.393837    0.667294
O      2.183420   -0.135959    0.626965
C      1.439792    0.930053    0.044292
C     -0.043273    0.564104    0.013640
C     -0.590412    0.216291    1.403464
O     -1.928890   -0.261807    1.295272
C     -3.027947    0.516313    0.896985
C     -3.129825    1.871749    1.258994
C     -4.228460    2.633089    0.862704
C     -5.244405    2.056041    0.087016
C     -6.357485    2.793963   -0.350852
O     -6.495236    4.010488   -0.041973
C     -7.327420    2.170911   -1.138802
C     -7.170344    0.817604   -1.470304
O     -6.111102    0.144197   -1.028552
C     -5.154308    0.694829   -0.282427
C     -4.048766   -0.079479    0.125344
C     -3.955638   -1.537220   -0.284474
C     -4.745347   -2.447198    0.667163
C     -4.006164   -2.698035    1.980095
C     -8.157551    0.123863   -2.312889
O     -8.007403   -1.098164   -2.577303
O     -9.254371    0.809302   -2.827708
C      7.647526   -1.782124    1.163228
O      8.635177   -1.003719    1.059980
C      7.923451   -3.217855    1.502990
H      6.017938    0.442969   -2.551807
H      5.216892    1.212342   -3.961377
H      6.079925    2.244339   -2.768140
H      3.603776    2.357297   -2.508251
H      3.537752    0.578305   -2.262400
H      3.546498    2.263521   -0.156694
H      5.192048    2.462636   -0.439259
H      7.062595    1.584989   -0.584014
H      5.348122   -2.973958    1.963867
H      3.076578   -2.218431    1.683994
H      1.743770    1.096628   -1.002744
H      1.565027    1.854196    0.645600
H     -0.188392   -0.307749   -0.662032
H     -0.613195    1.422554   -0.404394
H      0.021914   -0.596433    1.850885
H     -0.530130    1.089958    2.084990
H     -2.369347    2.345557    1.862935
H     -4.280241    3.672982    1.165143
H     -8.184977    2.734246   -1.487746
H     -2.897421   -1.875442   -0.350255
H     -4.362324   -1.655856   -1.312442
H     -5.740999   -2.006279    0.883047
H     -4.907203   -3.424601    0.169598
H     -3.880221   -1.751609    2.542777
H     -4.592328   -3.399673    2.608900
H     -3.016576   -3.156390    1.772384
H     -9.913404    0.343241   -3.440523
H      8.996425   -3.457368    1.342090
H      7.320338   -3.885737    0.853304
H      7.679471   -3.407235    2.566009
