58
Lipophilicity 287 3.1700000762939453
C      6.413705    4.163915    0.040197
O      5.949675    3.041232   -0.704913
C      5.273662    1.941697   -0.151146
C      5.044044    1.812261    1.231314
C      4.381917    0.685303    1.733664
C      3.930946   -0.317611    0.872807
O      3.318867   -1.454037    1.427713
C      2.460905   -2.323879    0.738945
C      2.562012   -3.698138    0.975948
C      1.722867   -4.592869    0.306231
C      0.756121   -4.117064   -0.584856
C      0.610847   -2.736743   -0.802103
C     -0.468595   -2.218122   -1.732016
N     -1.748965   -1.912376   -1.055011
C     -2.411523   -3.114142   -0.505953
C     -3.765338   -2.775375    0.156052
C     -4.161633   -1.306298   -0.034639
C     -3.025232   -0.371292    0.430511
C     -1.625061   -0.856175   -0.030847
N     -3.290241    1.029426    0.022555
C     -3.601247    1.944125    0.989956
C     -3.833746    3.283678    0.665424
C     -4.180894    4.276267    1.740403
C     -3.795083    3.651408   -0.683941
O     -4.024872    4.841486   -1.029991
N     -3.508098    2.719670   -1.629605
C     -3.251981    1.429447   -1.293614
O     -2.976545    0.609351   -2.207342
C      1.477387   -1.844305   -0.145423
C      4.159093   -0.190090   -0.509932
C      4.826172    0.932820   -1.012720
H      6.923777    4.873780   -0.646801
H      5.552814    4.683028    0.515130
H      7.141918    3.835937    0.812561
H      5.378924    2.570587    1.927005
H      4.222467    0.592715    2.801838
H      3.307947   -4.072793    1.665111
H      1.819551   -5.656714    0.479108
H      0.108499   -4.822313   -1.092977
H     -0.647947   -2.957838   -2.543975
H     -0.101939   -1.303809   -2.249609
H     -2.586181   -3.841675   -1.327738
H     -1.766962   -3.603920    0.253363
H     -3.702052   -2.986892    1.245463
H     -4.566723   -3.424603   -0.260189
H     -5.081005   -1.089038    0.552622
H     -4.403503   -1.141453   -1.105890
H     -3.015174   -0.440332    1.543393
H     -1.067133   -1.245905    0.852723
H     -1.036702   -0.000009   -0.429121
H     -3.662839    1.639349    2.029678
H     -5.283902    4.384000    1.800719
H     -3.795783    3.944898    2.726961
H     -3.727701    5.264801    1.516711
H     -3.479751    3.005197   -2.636083
H      1.373454   -0.777685   -0.302698
H      3.866610   -0.973121   -1.194574
H      5.010172    1.010239   -2.076916
