37
Lipophilicity 1209 0.0
C     -4.239186    0.825732   -1.345608
C     -3.349367    0.879041   -0.110743
N     -2.924404   -0.494540    0.251201
C     -3.438275   -0.944877    1.562774
C     -4.923017   -1.288755    1.475608
C     -1.465646   -0.702148    0.106100
C     -0.630295    0.010512    1.188544
O      0.760249   -0.094108    0.890221
C      1.400190    0.680231   -0.086259
O      0.754542    1.561652   -0.718417
C      2.836285    0.466217   -0.370094
C      3.499235    1.237104   -1.342536
C      4.856363    1.029481   -1.607028
C      5.571218    0.049992   -0.905576
N      6.959235   -0.161447   -1.177068
C      4.916485   -0.720990    0.063662
C      3.559404   -0.515402    0.330143
H     -5.141194    0.210368   -1.145659
H     -3.679798    0.384024   -2.197494
H     -4.560452    1.852325   -1.621353
H     -2.485455    1.539266   -0.346830
H     -3.910296    1.375522    0.712178
H     -3.277031   -0.169308    2.344566
H     -2.907968   -1.868053    1.887420
H     -5.259946   -1.729796    2.437386
H     -5.096617   -2.026317    0.663511
H     -5.526107   -0.378085    1.279624
H     -1.245793   -1.791372    0.143429
H     -1.145809   -0.361482   -0.902868
H     -0.914407    1.079166    1.290541
H     -0.804912   -0.478418    2.169316
H      2.970248    2.000525   -1.899266
H      5.350505    1.632100   -2.358813
H      7.455882    0.408364   -1.897860
H      7.500461   -0.889356   -0.659279
H      5.457506   -1.481463    0.612736
H      3.078166   -1.125704    1.083997
