33
Lipophilicity 1946 2.9000000953674316
C     -3.230097    1.749405   -1.166199
O     -2.449938    0.709626   -0.585381
C     -2.948432   -0.547773   -0.205010
C     -4.312753   -0.873364   -0.350347
C     -4.796018   -2.110368    0.080013
C     -3.931061   -3.035394    0.662309
C     -2.576445   -2.731986    0.806382
C     -2.068135   -1.498733    0.361059
C     -0.622239   -1.217190    0.517576
O     -0.017477   -1.653535    1.534874
N      0.100286   -0.502598   -0.498635
C      1.415690    0.035828   -0.307797
N      2.073938    0.010935    0.882908
C      3.231328    0.630564    0.589746
C      4.299826    0.889797    1.445049
C      5.416677    1.561399    0.911152
C      5.435284    1.952331   -0.448028
C      4.337320    1.674822   -1.284406
C      3.251823    1.008421   -0.720410
N      2.106005    0.640361   -1.305497
H     -3.670675    1.405600   -2.125789
H     -4.032703    2.061868   -0.465295
H     -2.576176    2.622177   -1.368626
H     -5.011572   -0.172167   -0.785163
H     -5.845787   -2.349343   -0.032097
H     -4.310025   -3.991460    0.999850
H     -1.919496   -3.469338    1.251582
H     -0.336537   -0.390501   -1.440906
H      4.273451    0.586439    2.483616
H      6.265867    1.780045    1.545357
H      6.298513    2.468273   -0.847750
H      4.337597    1.968702   -2.326009
H      1.811959    0.787157   -2.296831
