33
Lipophilicity 1935 2.440000057220459
C     -1.659265    3.363969    0.005500
N     -0.323510    2.785302    0.179217
C      0.844517    3.650708    0.369113
C     -0.157331    1.354566    0.163189
N     -1.231491    0.540540   -0.011945
C     -1.082687   -0.810283   -0.028227
N      0.156249   -1.345251    0.132946
C      1.240018   -0.544282    0.309083
N      1.075242    0.804712    0.323045
N      2.549766   -1.119171    0.479207
C      2.711995   -2.576105    0.461896
C      3.709493   -0.242486    0.668228
N     -2.226256   -1.666131   -0.214380
C     -2.050227   -3.121484   -0.229692
C     -3.556513   -1.074603   -0.386961
H     -2.330182    3.006361    0.815007
H     -2.075637    3.056003   -0.976897
H     -1.634977    4.473298    0.039682
H      0.566552    4.725423    0.359400
H      1.577453    3.474364   -0.446377
H      1.322905    3.424724    1.345529
H      3.771879   -2.874038    0.604200
H      2.111387   -3.029247    1.278748
H      2.365926   -2.979613   -0.513158
H      3.566764    0.375573    1.579790
H      3.821305    0.425203   -0.212115
H      4.648961   -0.822130    0.785625
H     -3.013985   -3.651169   -0.381266
H     -1.618392   -3.456391    0.737092
H     -1.363853   -3.406752   -1.054814
H     -3.561565   -0.420294   -1.284273
H     -3.816109   -0.469931    0.507632
H     -4.338434   -1.851384   -0.519551
