73
Lipophilicity 646 1.309999942779541
C      7.974471   -1.443071   -2.161127
O      7.109136   -0.648597   -1.349692
C      5.742066   -0.916080   -1.152255
C      5.168929   -2.146669   -1.528572
C      3.798233   -2.370631   -1.363408
C      2.969798   -1.369887   -0.828522
C      3.551059   -0.152553   -0.430114
C      4.928195    0.075425   -0.572430
C      5.528612    1.369486   -0.069627
N      6.119268    1.151215    1.267004
C      6.736570    2.371943    1.796801
C      5.703359    3.307209    2.432872
O      4.910260    2.629308    3.374749
C      1.504576   -1.571024   -0.676197
C      0.947481   -2.833831   -0.404204
C     -0.433202   -2.958517   -0.220122
C     -1.252451   -1.823562   -0.306853
C     -2.641447   -1.857294   -0.093172
N     -3.357707   -0.701098   -0.169224
C     -2.763471    0.492694   -0.451410
N     -1.419180    0.536099   -0.653806
C     -0.659093   -0.580611   -0.585862
N      0.683544   -0.489965   -0.753453
N     -3.536748    1.711746   -0.487280
C     -4.982446    1.636406   -0.217896
C     -5.667787    3.006322   -0.316648
C     -6.997448    3.011908    0.433408
O     -4.834434    4.005996    0.229187
C     -3.741364    4.216839   -0.639753
C     -2.971660    5.466668   -0.193646
C     -2.816129    2.987251   -0.660855
N     -3.311789   -3.076086    0.258338
C     -3.928387   -3.159179    1.590302
C     -4.359578   -4.594285    1.894848
O     -5.116041   -5.118667    0.823667
C     -4.271715   -5.300309   -0.296286
C     -3.756525   -3.955710   -0.832662
H      7.540923   -1.549810   -3.186037
H      8.955977   -0.931418   -2.247381
H      8.127237   -2.443524   -1.698643
H      5.779672   -2.939465   -1.937525
H      3.389016   -3.313608   -1.687499
H      2.932047    0.623477    0.001129
H      4.736949    2.152408   -0.007440
H      6.297167    1.739249   -0.787019
H      6.889845    0.447053    1.156971
H      7.299434    2.916575    1.005140
H      7.474273    2.094741    2.584013
H      5.041848    3.739836    1.655236
H      6.238578    4.159720    2.918361
H      5.518517    2.325925    4.103819
H      1.570432   -3.712575   -0.298425
H     -0.852494   -3.929706    0.011964
H     -5.134602    1.195030    0.797306
H     -5.460298    0.951532   -0.959485
H     -5.916339    3.207670   -1.385861
H     -6.833624    2.820526    1.513083
H     -7.688335    2.241399    0.022455
H     -7.480560    4.007705    0.314666
H     -4.085167    4.422795   -1.679476
H     -2.172420    5.705898   -0.922248
H     -2.508955    5.317005    0.804112
H     -3.652134    6.336286   -0.130321
H     -2.057694    3.069405    0.144232
H     -2.273084    2.975843   -1.629249
H     -4.820759   -2.489357    1.628263
H     -3.196917   -2.826803    2.364159
H     -4.997560   -4.585201    2.803663
H     -3.471227   -5.227783    2.132013
H     -4.860483   -5.807876   -1.091341
H     -3.419525   -5.982115   -0.061081
H     -4.557319   -3.448428   -1.414069
H     -2.909373   -4.171304   -1.523591
