57
Lipophilicity 737 2.890000104904175
C      0.853236    1.777129   -2.236670
C     -0.516180    1.169443   -1.887342
C     -1.572796    2.285532   -1.814619
N     -2.856554    1.756345   -1.332726
C     -2.844468    0.972940   -0.092082
C     -1.803591   -0.141389   -0.177503
N     -0.514830    0.396750   -0.626765
C      0.678034   -0.233323   -0.127971
N      1.702842    0.522922    0.347251
C      2.828094   -0.050329    0.846437
C      2.943703   -1.448519    0.884664
O      4.073676   -2.108161    1.388420
C      5.208148   -1.448114    1.942890
C      6.197156   -2.476353    2.408490
C      5.985333   -3.154572    3.619451
C      6.883260   -4.139676    4.042180
C      7.995076   -4.461659    3.253945
C      8.204870   -3.795154    2.040975
C      7.306696   -2.810486    1.617424
C      8.917999   -5.477077    3.688160
N      9.659946   -6.293185    4.036876
C      1.875676   -2.205105    0.400023
N      0.768219   -1.589776   -0.088560
C     -4.097151    2.301198   -1.825497
O     -4.106825    2.986627   -2.883953
O     -5.289137    2.063961   -1.120876
C     -6.592963    2.560526   -1.459195
C     -6.605153    4.101030   -1.460209
C     -7.043530    2.013850   -2.827186
C     -7.563236    2.058248   -0.379720
H      0.783528    2.351524   -3.185154
H      1.195158    2.464243   -1.433639
H      1.607013    0.976111   -2.387745
H     -0.796906    0.481138   -2.716367
H     -1.234055    3.084671   -1.119131
H     -1.681137    2.733229   -2.825726
H     -3.834015    0.506863    0.100044
H     -2.602983    1.643488    0.760336
H     -1.705028   -0.610237    0.827486
H     -2.147092   -0.919983   -0.894025
H      3.621239    0.587138    1.210557
H      5.668462   -0.786015    1.176770
H      4.893717   -0.819712    2.805117
H      5.123490   -2.922952    4.232026
H      6.707628   -4.653308    4.979591
H      9.058919   -4.040313    1.420456
H      7.476954   -2.312113    0.669960
H      1.923505   -3.285789    0.416291
H     -5.992797    4.511900   -2.289242
H     -7.641577    4.482279   -1.588150
H     -6.200276    4.489109   -0.501031
H     -8.100790    2.291754   -3.029461
H     -6.958166    0.905959   -2.845086
H     -6.424918    2.423881   -3.651278
H     -7.242454    2.416045    0.622161
H     -7.576635    0.947508   -0.360397
H     -8.596334    2.421378   -0.570676
