52
Lipophilicity 462 1.8600000143051147
C     -8.155381   -1.968862   -1.200660
O     -6.859861   -1.749863   -0.683919
C     -6.894305   -1.682715    0.731722
C     -6.938577   -0.223899    1.199431
N     -5.775573    0.517720    0.689026
C     -4.663709    0.496896    1.648208
C     -3.425584    1.048743    0.998197
C     -3.222054    2.435393    0.931846
C     -2.092355    2.953317    0.291293
C     -1.144854    2.093394   -0.283441
N     -0.004715    2.649245   -0.958917
C      1.299556    2.052915   -0.948390
N      2.242894    2.489963   -1.825624
C      3.498403    1.970966   -1.829238
C      3.843393    0.975971   -0.909018
C      5.128619    0.418386   -0.871492
C      5.445516   -0.571193    0.079307
C      4.452285   -0.993165    0.984964
C      3.169885   -0.439446    0.944297
C      2.861358    0.544369    0.001317
N      1.618557    1.091811   -0.037515
C      6.810683   -1.156127    0.132087
C      7.510539   -1.454100   -1.050343
C      8.796557   -1.995832   -0.976372
N      9.368878   -2.234314    0.233281
C      8.719696   -1.958084    1.394412
C      7.431952   -1.415718    1.366551
C     -1.366693    0.705673   -0.246117
C     -2.501038    0.188305    0.386280
H     -8.108079   -1.931769   -2.310587
H     -8.866765   -1.178058   -0.864788
H     -8.532439   -2.976628   -0.910210
H     -5.969264   -2.161094    1.122009
H     -7.744289   -2.246585    1.185911
H     -7.873585    0.240695    0.814825
H     -6.995262   -0.186824    2.308851
H     -6.062357    1.518922    0.560242
H     -4.465820   -0.541854    1.997647
H     -4.917456    1.105212    2.544981
H     -3.941574    3.115143    1.371229
H     -1.950501    4.025420    0.247891
H     -0.110430    3.580121   -1.425025
H      4.222563    2.338253   -2.545716
H      5.884312    0.769359   -1.564624
H      4.663234   -1.763648    1.716176
H      2.417773   -0.777376    1.646378
H      7.062233   -1.285159   -2.021511
H      9.337773   -2.232028   -1.882176
H      9.204289   -2.156530    2.341981
H      6.935513   -1.185105    2.300931
H     -0.680376    0.023441   -0.730337
H     -2.663561   -0.883658    0.388591
