52
Lipophilicity 170 3.890000104904175
C     -3.891777   -2.293576    1.218847
C     -3.431904   -2.258404   -0.241583
C     -2.807039   -0.917544   -0.689892
N     -1.516625   -0.672259   -0.031711
C     -0.582993    0.294491   -0.535623
O     -0.917682    1.085557   -1.458736
C      0.793188    0.346370    0.001161
C      1.876076   -0.105555   -0.792952
N      1.639871   -0.688225   -2.088278
C      3.185798   -0.052375   -0.258915
N      3.376868    0.373599    1.016454
C      2.360788    0.791409    1.809599
C      2.637097    1.224554    3.111795
C      1.605654    1.684698    3.931982
C      0.295465    1.721517    3.452813
C      0.008728    1.290479    2.154601
C      1.036568    0.806716    1.317260
C      4.379976   -0.432285   -1.043005
C      5.311927   -1.335474   -0.505706
C      6.462626   -1.672574   -1.225378
C      6.698614   -1.099660   -2.478019
C      5.787451   -0.183618   -3.010473
C      4.635646    0.156249   -2.294198
C     -3.758522    0.249408   -0.498626
C     -3.851222    0.922683    0.734571
C     -4.743442    1.986613    0.894934
C     -5.558385    2.383538   -0.167621
C     -5.486825    1.712844   -1.390785
C     -4.595826    0.648032   -1.555900
H     -4.209522   -3.325496    1.477569
H     -4.762503   -1.622268    1.369637
H     -3.073455   -1.999158    1.907187
H     -4.305884   -2.485376   -0.890625
H     -2.687991   -3.069516   -0.399607
H     -2.600997   -1.029281   -1.778662
H     -1.196381   -1.301653    0.738471
H      2.378309   -1.230856   -2.586472
H      0.699765   -0.675499   -2.539743
H      3.652727    1.210116    3.487965
H      1.823230    2.020525    4.937651
H     -0.500648    2.088634    4.087717
H     -1.013698    1.349758    1.812759
H      5.143099   -1.784720    0.465415
H      7.172810   -2.376187   -0.810601
H      7.590431   -1.360603   -3.033009
H      5.976540    0.267777   -3.975841
H      3.947581    0.881737   -2.710623
H     -3.244872    0.616019    1.575893
H     -4.806912    2.499895    1.845703
H     -6.249688    3.206683   -0.041317
H     -6.123906    2.016598   -2.211355
H     -4.558139    0.135665   -2.509217
