52
Lipophilicity 86 2.4600000381469727
N     -4.302596   -3.631206    0.356051
C     -3.003591   -3.047706    0.293401
N     -1.957646   -3.766914   -0.183453
C     -0.706838   -3.241043   -0.252523
N      0.360057   -4.065444   -0.735112
C     -0.484393   -1.913699    0.174567
C     -1.590999   -1.176768    0.652199
C     -1.458153    0.249242    1.134518
O     -2.697851    0.926655    1.054664
C     -2.883219    1.462497   -0.240282
C     -4.329008    1.826291   -0.409891
C     -4.767707    3.139457   -0.171356
C     -6.123172    3.461231   -0.294537
C     -7.048812    2.474353   -0.644221
C     -6.621582    1.162315   -0.867248
C     -5.267394    0.836323   -0.744950
N     -2.812539   -1.771788    0.710156
C      0.864277   -1.310911    0.115054
C      1.429852   -0.969310   -1.121144
C      2.698892   -0.386616   -1.176596
C      3.412683   -0.121248    0.002050
N      4.724650    0.461890   -0.082697
C      5.267838    1.343320    0.918897
O      4.492265    1.924372    1.724148
C      6.745033    1.639259    1.032306
C      7.713926    0.637096    0.421363
C      7.460948    1.972231   -0.267748
C      2.850207   -0.484126    1.239304
C      1.581524   -1.068294    1.294408
H     -5.112670   -3.079426    0.716239
H     -4.457039   -4.613398    0.037448
H      0.158117   -5.036011   -1.061876
H      1.352514   -3.743948   -0.746500
H     -0.653028    0.797209    0.591664
H     -1.153196    0.218199    2.200869
H     -2.245847    2.366091   -0.367896
H     -2.608235    0.733757   -1.039086
H     -4.063053    3.911250    0.111450
H     -6.456635    4.474907   -0.113597
H     -8.097708    2.724843   -0.737068
H     -7.340443    0.396926   -1.130250
H     -4.950184   -0.186237   -0.908343
H      0.886521   -1.152598   -2.040079
H      3.122545   -0.129368   -2.139282
H      5.255502    0.310341   -0.968166
H      7.122930    2.181240    1.925852
H      8.697196    0.580767    0.934628
H      7.278759   -0.241234   -0.097478
H      6.863697    1.905083   -1.200357
H      8.295305    2.697008   -0.158481
H      3.397630   -0.337748    2.160706
H      1.160671   -1.339110    2.254912
