67
Lipophilicity 852 2.799999952316284
C     -3.173832   -0.149715   -4.299032
C     -2.004140    0.507834   -3.584879
O     -1.995888    0.102472   -2.218765
C     -1.055443    0.523399   -1.264544
C     -0.006745    1.405704   -1.590889
C      0.920585    1.807443   -0.616202
C      0.788988    1.326781    0.694648
C     -0.245452    0.451244    1.025493
C     -1.179840    0.052991    0.055758
N     -2.232917   -0.867809    0.387348
C     -3.007113   -0.788813    1.594537
O     -2.844749    0.166138    2.401557
C     -4.056923   -1.822348    1.877645
N     -5.074315   -1.832603    0.803790
C     -5.973501   -0.658048    0.849311
C     -7.062749   -0.803358    1.927528
O     -7.791702   -2.001058    1.753172
C     -6.923125   -3.108015    1.884172
C     -5.852712   -3.087665    0.782669
C      2.023758    2.733115   -0.970304
C      1.735599    3.930520   -1.646458
C      2.757118    4.823135   -1.977156
C      4.081221    4.533530   -1.644468
C      4.395194    3.336258   -0.979432
C      5.713511    2.999181   -0.634544
O      6.673002    3.774578   -0.897244
C      5.966030    1.788476    0.010418
C      4.894902    0.925132    0.300398
O      3.657359    1.284739   -0.034007
C      3.362534    2.430233   -0.644428
N      5.101309   -0.341506    0.962592
C      6.423466   -0.982927    0.991536
C      6.276874   -2.499131    1.155656
O      5.432206   -2.809916    2.245929
C      4.120101   -2.363502    1.968184
C      4.072726   -0.835510    1.885275
H     -3.073385   -1.254949   -4.252392
H     -4.129235    0.150395   -3.817780
H     -3.189211    0.167274   -5.363331
H     -1.056435    0.197431   -4.076213
H     -2.112850    1.612238   -3.649431
H      0.103714    1.771800   -2.602951
H      1.485878    1.633458    1.464960
H     -0.304279    0.069491    2.036315
H     -2.528488   -1.562492   -0.335828
H     -3.535883   -2.802857    1.928701
H     -4.516178   -1.643084    2.873353
H     -6.466762   -0.549576   -0.141294
H     -5.400642    0.278475    1.022343
H     -6.631453   -0.743787    2.951655
H     -7.766896    0.050311    1.831102
H     -6.457768   -3.137108    2.895170
H     -7.521595   -4.036993    1.777127
H     -6.354232   -3.181469   -0.205034
H     -5.187603   -3.973103    0.884432
H      0.713726    4.181743   -1.903598
H      2.520973    5.745884   -2.491472
H      4.855214    5.242644   -1.911294
H      6.980489    1.540537    0.294461
H      6.969625   -0.793013    0.042017
H      7.013019   -0.569744    1.838963
H      7.280139   -2.933793    1.350227
H      5.902676   -2.958946    0.211890
H      3.728127   -2.817392    1.028980
H      3.452890   -2.695456    2.791190
H      3.057550   -0.534863    1.550861
H      4.253539   -0.404032    2.892727
