30
Lipophilicity 349 2.5
N     -2.448856   -2.222745   -2.309198
C     -1.687521   -1.116063   -1.819247
O     -0.495416   -0.978417   -2.204878
C     -2.279523   -0.137587   -0.872335
C     -3.656823    0.146422   -0.931911
C     -4.230339    1.072932   -0.059786
C     -3.439704    1.731031    0.880097
C     -2.071430    1.466617    0.952345
C     -1.476145    0.531278    0.081291
O     -0.104115    0.236728    0.148596
C      0.814151    0.836645    1.057639
C      2.182445    0.270863    0.815794
C      2.599764   -0.887643    1.491759
C      3.859794   -1.437202    1.234473
C      4.704649   -0.842397    0.293226
C      4.288790    0.300136   -0.396109
C      3.029564    0.852834   -0.141715
H     -3.392633   -2.448106   -1.924972
H     -2.032994   -2.871264   -3.014039
H     -4.290634   -0.328288   -1.669578
H     -5.289970    1.286175   -0.117988
H     -3.887722    2.450311    1.553611
H     -1.485610    1.993084    1.693004
H      0.828407    1.938231    0.906315
H      0.497576    0.630537    2.103519
H      1.950471   -1.364623    2.215579
H      4.179536   -2.326705    1.761763
H      5.678850   -1.269863    0.094076
H      4.940505    0.755164   -1.130754
H      2.714930    1.731918   -0.690575
