62
Lipophilicity 757 3.200000047683716
C      1.562010    2.138989   -3.533500
O      0.754655    1.859154   -2.394455
C      1.225730    1.278561   -1.205351
C      2.574827    0.905003   -1.043170
C      3.023089    0.317996    0.153804
C      2.105870    0.129472    1.200590
C      0.768815    0.496645    1.047739
C      0.314458    1.053587   -0.157748
N     -1.061700    1.442342   -0.310723
C     -2.167143    0.652810    0.150700
N     -1.979523   -0.620424    0.586846
C     -3.021037   -1.381130    1.008120
C     -4.324681   -0.861333    0.991022
O     -5.427592   -1.584070    1.473828
C     -5.363417   -2.916527    1.968857
C     -4.504393    0.439608    0.492371
N     -3.423205    1.165532    0.102203
C     -5.839282    1.060373    0.415083
C     -6.170233    2.326690    0.868794
N     -7.475363    2.581522    0.612144
C     -7.900855    1.461450   -0.007959
C     -9.184546    1.249240   -0.507317
C     -9.434888    0.039647   -1.174112
C     -8.407287   -0.907741   -1.336119
C     -7.132026   -0.639806   -0.817713
N     -6.939850    0.530311   -0.150166
N      4.406287   -0.073434    0.309024
C      4.756004   -1.246632    1.122800
C      6.007242   -1.938047    0.571904
N      7.102785   -0.984187    0.339166
C      6.834350    0.461686    0.373085
C      5.471097    0.771287   -0.254790
C      8.441676   -1.495509    0.159968
O      8.616486   -2.721230   -0.080914
C      9.645375   -0.603495    0.233640
H      2.368636    2.852567   -3.264076
H      0.930797    2.598226   -4.321173
H      1.998662    1.199247   -3.932194
H      3.274409    1.052032   -1.852741
H      2.426823   -0.285591    2.147156
H      0.091929    0.366032    1.882301
H     -1.278489    2.301860   -0.864384
H     -2.822739   -2.381937    1.363982
H     -4.697460   -2.962725    2.856123
H     -4.993500   -3.600011    1.176165
H     -6.380626   -3.239867    2.270434
H     -5.503033    3.021450    1.361585
H     -9.960265    1.995423   -0.396686
H    -10.419440   -0.159034   -1.577491
H     -8.596752   -1.831994   -1.866341
H     -6.324807   -1.344773   -0.964790
H      4.938725   -0.923747    2.170651
H      3.923347   -1.984005    1.120821
H      5.758686   -2.445971   -0.384941
H      6.327541   -2.709268    1.306130
H      7.603045    1.025064   -0.196514
H      6.851684    0.812051    1.427745
H      5.235867    1.843805   -0.076253
H      5.532916    0.598859   -1.351069
H     10.568996   -1.208931    0.361776
H      9.733189   -0.016408   -0.704713
H      9.558121    0.085080    1.100845
