56
Lipophilicity 709 0.7400000095367432
C     -4.851830    3.475299   -2.093039
O     -5.425778    2.204474   -1.803785
C     -4.848151    1.238699   -0.962589
C     -3.627450    1.465169   -0.303044
C     -3.065929    0.482819    0.523507
C     -3.750329   -0.727406    0.702949
C     -4.976676   -0.975387    0.055303
O     -5.652267   -2.193400    0.234451
C     -5.201889   -3.267335    1.054582
C     -5.528038    0.022784   -0.787967
O     -6.746189   -0.123693   -1.479953
C     -7.617961   -1.248449   -1.438222
C     -1.779323    0.717488    1.224943
O     -1.530066    0.083042    2.286436
N     -0.808327    1.642385    0.707502
C      0.433052    1.947534    1.414588
C      1.459114    0.883627    1.137375
C      1.753988   -0.093107    2.100077
C      2.688022   -1.095216    1.823239
C      3.341628   -1.140261    0.586056
O      4.271531   -2.170426    0.369087
C      5.227776   -2.232541   -0.691825
C      6.458081   -1.376544   -0.368758
N      6.128112    0.064311   -0.416683
C      6.329313    0.606624   -1.772224
C      6.949255    0.819099    0.543436
C      3.030384   -0.170912   -0.387298
C      2.097303    0.832280   -0.110564
H     -5.515849    4.021116   -2.794032
H     -4.752919    4.070964   -1.161152
H     -3.858725    3.345825   -2.572860
H     -3.129463    2.417046   -0.413494
H     -3.314692   -1.481836    1.343388
H     -5.940703   -4.093435    1.005566
H     -4.223625   -3.644292    0.688158
H     -5.115229   -2.932562    2.110162
H     -7.103624   -2.149390   -1.834222
H     -8.498633   -1.042737   -2.080561
H     -7.978606   -1.416972   -0.401484
H     -0.919484    2.026973   -0.256733
H      0.237297    2.049132    2.504914
H      0.821245    2.929301    1.065621
H      1.261716   -0.080733    3.064691
H      2.908847   -1.840472    2.576990
H      4.775691   -1.968930   -1.669023
H      5.564088   -3.287368   -0.778722
H      7.281980   -1.628077   -1.075465
H      6.807873   -1.677483    0.645436
H      5.739126    0.030074   -2.515874
H      7.402912    0.575492   -2.065790
H      5.972787    1.658333   -1.816070
H      6.725241    0.484507    1.579629
H      8.035260    0.679507    0.340693
H      6.704824    1.902514    0.492808
H      3.488795   -0.184596   -1.363829
H      1.866514    1.567143   -0.872102
