33
Lipophilicity 1174 3.799999952316284
N     -2.547919   -0.396615    1.364126
C     -3.606636    0.174550    0.577331
C     -3.405788    1.335148   -0.193457
C     -4.460095    1.882426   -0.931636
C     -5.723451    1.286837   -0.897237
C     -5.937275    0.147868   -0.116999
C     -4.885994   -0.401871    0.623231
C     -1.168700   -0.398263    0.970944
C     -0.122067   -0.814489    1.770824
C      0.974995   -0.691850    0.946098
N      2.312957   -1.074716    1.293254
C      3.482224   -0.633837    0.585021
C      4.594643   -1.484584    0.492276
C      5.753055   -1.064247   -0.168787
C      5.815138    0.214849   -0.727830
C      4.721917    1.078315   -0.619197
C      3.561694    0.661188    0.040751
N      0.584628   -0.264026   -0.270486
N     -0.726333   -0.085225   -0.264715
H     -2.803625   -0.918793    2.232867
H     -2.446475    1.834444   -0.205566
H     -4.299659    2.774409   -1.523409
H     -6.538475    1.712853   -1.467955
H     -6.918316   -0.308164   -0.083849
H     -5.064656   -1.283791    1.225566
H     -0.157191   -1.167297    2.793102
H      2.436587   -1.745702    2.085100
H      4.558826   -2.476774    0.924437
H      6.603487   -1.729386   -0.245291
H      6.713012    0.539839   -1.237404
H      4.776524    2.074466   -1.038978
H      2.737386    1.354804    0.143439
H      1.185581   -0.132364   -1.113461
