49
Lipophilicity 1782 0.9100000262260437
C     -1.741072   -1.346630   -0.491276
C     -1.441541   -0.113732    0.386335
C     -2.409228    1.061964    0.063093
O     -2.032179    2.241020    0.733380
C     -3.855123    0.721373    0.380687
C     -4.282090    0.538555    1.709647
C     -5.611592    0.207459    1.987297
C     -6.530676    0.050668    0.946118
O     -7.852083   -0.279211    1.238542
C     -6.114387    0.225420   -0.379636
C     -4.785765    0.556465   -0.661327
N     -0.020427    0.321864    0.307381
C      0.939554   -0.590228    0.982757
C      1.881367   -1.311859    0.000068
C      2.685027   -0.340698   -0.942343
O      2.688293   -0.867542   -2.251006
C      1.942897    1.024950   -1.019867
C      0.425476    0.824529   -1.013380
C      4.155627   -0.190223   -0.488239
C      4.810743    1.064549   -0.413679
C      6.155257    1.152348   -0.040090
C      6.886086   -0.002238    0.232958
C      6.280169   -1.251056    0.113405
C      4.936802   -1.347367   -0.258810
H     -2.755558   -1.735544   -0.262051
H     -1.710581   -1.097843   -1.571588
H     -1.025856   -2.165802   -0.281014
H     -1.646348   -0.413405    1.438727
H     -2.330270    1.276988   -1.024744
H     -1.888107    2.020623    1.690157
H     -3.588844    0.646150    2.533371
H     -5.927563    0.070483    3.013656
H     -8.542853   -0.396934    0.506432
H     -6.818576    0.102547   -1.192561
H     -4.483994    0.679691   -1.693966
H      1.556913    0.009988    1.684962
H      0.418855   -1.353060    1.602983
H      1.262840   -1.995139   -0.619962
H      2.543861   -1.967997    0.598946
H      3.053660   -1.790271   -2.218433
H      2.184742    1.661377   -0.140345
H      2.241933    1.575181   -1.939574
H     -0.048453    1.808319   -1.214117
H      0.147328    0.129364   -1.832372
H      4.310184    1.989300   -0.657140
H      6.635391    2.120415    0.024583
H      7.927964    0.069930    0.517241
H      6.855646   -2.149252    0.297245
H      4.516550   -2.336563   -0.382451
