46
Lipophilicity 292 4.28000020980835
C     -3.000615    1.475750    0.430107
C     -3.906501    0.290581    0.215003
C     -5.103644    0.221801    0.949078
C     -5.997563   -0.832622    0.755471
C     -5.707791   -1.833564   -0.170396
C     -4.514708   -1.793656   -0.893766
C     -3.591672   -0.751890   -0.696411
C     -2.327466   -0.779629   -1.464045
O     -2.359948   -1.033496   -2.699187
N     -1.069353   -0.566687   -0.810134
C      0.162617   -0.380684   -1.581966
C      1.401725   -0.063526   -0.701737
C      1.722928   -1.239009    0.267632
C      2.982595   -0.910786    1.099677
C      2.740195    0.378696    1.915104
C      2.450192    1.553983    0.955476
C      3.653606    1.756329    0.010726
C      3.890941    0.467897   -0.804908
C      4.185244   -0.704051    0.154945
C      2.629752    0.146710   -1.635653
C      1.187485    1.239697    0.123037
H     -2.464880    1.746572   -0.503521
H     -3.586821    2.367549    0.738739
H     -2.267052    1.245892    1.230013
H     -5.353122    0.995111    1.665453
H     -6.920112   -0.869968    1.320365
H     -6.405493   -2.646953   -0.322720
H     -4.300706   -2.590679   -1.595776
H     -1.055869   -0.561028    0.232388
H      0.006116    0.453547   -2.301208
H      0.355695   -1.302243   -2.174014
H      1.890464   -2.176372   -0.307915
H      0.878724   -1.429476    0.962985
H      3.198085   -1.752436    1.793371
H      3.633872    0.608097    2.536200
H      1.883089    0.234191    2.609093
H      2.283496    2.481345    1.545584
H      4.562696    2.005187    0.601242
H      3.459641    2.610416   -0.674855
H      4.756925    0.615055   -1.486359
H      5.101550   -0.489034    0.747600
H      4.376724   -1.632937   -0.426100
H      2.436172    0.980726   -2.346735
H      2.812676   -0.766928   -2.244331
H      0.966540    2.092573   -0.556503
H      0.323571    1.139955    0.813131
