17
Lipophilicity 306 0.20000000298023224
O     -1.075628    2.539193    0.420754
C     -1.155792    1.313195    0.130469
C     -2.418971    0.746328   -0.048050
C     -2.511086   -0.603054   -0.367689
N     -1.384481   -1.343766   -0.500617
C     -0.153848   -0.793799   -0.327235
C      0.980252   -1.599318   -0.475083
C      2.244972   -1.044219   -0.299267
C      2.368897    0.304710    0.021416
C      1.221406    1.088144    0.163603
N     -0.026433    0.543055   -0.009257
H     -3.316600    1.343013    0.059388
H     -3.479306   -1.063921   -0.510704
H      0.882098   -2.648740   -0.724627
H      3.128559   -1.659195   -0.411500
H      3.348827    0.743198    0.159608
H      1.347134    2.135177    0.413582
