32
Lipophilicity 1128 1.190000057220459
O     -3.878472    2.744386   -0.017257
C     -2.755346    2.560904   -0.816424
O     -2.422154    3.460621   -1.633536
C     -1.953883    1.328344   -0.717899
C     -0.813249    1.041439   -1.462017
N     -0.318433   -0.171226   -1.120515
C      0.911313   -0.768676   -1.643332
C      2.068914   -0.452363   -0.735003
C      2.595775    0.849460   -0.695388
C      3.653721    1.155886    0.165967
C      4.190953    0.167279    0.994696
C      3.671056   -1.129501    0.963184
C      2.613017   -1.440270    0.103242
C     -1.128257   -0.653816   -0.154659
C     -1.019998   -1.868319    0.529857
C     -1.982701   -2.163221    1.509752
C     -3.023012   -1.252492    1.786505
C     -3.111912   -0.036741    1.086629
C     -2.143471    0.235293    0.115505
H     -4.431335    3.590667   -0.083002
H     -0.365316    1.691465   -2.203383
H      1.121798   -0.368652   -2.659421
H      0.779517   -1.866237   -1.758220
H      2.186421    1.625707   -1.329821
H      4.055996    2.160350    0.192081
H      5.009472    0.406062    1.661366
H      4.087632   -1.894285    1.605877
H      2.223052   -2.449932    0.090564
H     -0.226355   -2.570433    0.317482
H     -1.925535   -3.096094    2.055384
H     -3.758185   -1.491013    2.544079
H     -3.911021    0.655410    1.307707
