45
Lipophilicity 727 1.909999966621399
N      3.125546    0.252940    1.743174
C      2.838372    0.148540    0.343796
C      1.596408   -0.102340   -0.214486
C      1.857431   -0.285781   -1.562533
N      3.180662   -0.159878   -1.788032
N      3.771658    0.107103   -0.632843
C      5.187091    0.318953   -0.510557
C      5.691735    1.393515    0.242061
C      7.070945    1.606887    0.329662
C      7.955315    0.759216   -0.343553
F      9.292190    0.968470   -0.259043
C      7.460291   -0.298465   -1.111773
C      6.081529   -0.514018   -1.201777
C      0.274536   -0.125205    0.447693
O      0.095839    0.575238    1.480284
C     -0.857731   -0.917349   -0.089674
C     -0.637298   -2.144328   -0.739793
C     -1.713282   -2.887920   -1.228419
C     -3.019271   -2.422642   -1.066243
C     -3.264845   -1.212754   -0.408839
O     -4.595661   -0.792622   -0.266245
C     -4.997082    0.412340    0.381581
C     -6.527625    0.532153    0.338736
O     -7.138527   -0.556159    0.986877
C     -7.024173    1.866485    0.922447
O     -6.702351    1.979748    2.283902
C     -2.177955   -0.463471    0.083973
H      2.363240    0.221186    2.453681
H      4.107873    0.255628    2.092836
H      1.129045   -0.485877   -2.337034
H      5.017922    2.075471    0.744710
H      7.452709    2.434546    0.913504
H      8.143917   -0.950809   -1.639733
H      5.709551   -1.335764   -1.800706
H      0.364131   -2.539084   -0.853992
H     -1.534778   -3.831095   -1.728566
H     -3.846310   -3.007749   -1.448173
H     -4.545357    1.281409   -0.145072
H     -4.644983    0.400357    1.436063
H     -6.836476    0.504309   -0.729070
H     -6.817921   -0.568414    1.926468
H     -6.603050    2.719961    0.341624
H     -8.128967    1.913502    0.818062
H     -5.803261    2.397354    2.333927
H     -2.351032    0.476414    0.590960
