64
Lipophilicity 1656 3.5999999046325684
C      7.587028   -1.207570   -0.512217
N      7.231430    0.220140   -0.473614
C      8.407191    1.009793   -0.065857
C      6.729658    0.654187   -1.796102
C      5.915343    1.950870   -1.686843
O      4.976688    1.883170   -0.611476
C      3.797449    1.120592   -0.601860
C      3.087221    1.017999    0.599011
C      1.905052    0.275236    0.667713
C      1.402138   -0.366948   -0.475781
C      2.121375   -0.276641   -1.677500
C      3.302898    0.466684   -1.745649
C      0.152490   -1.159655   -0.441646
O     -0.034101   -2.217270   -1.209451
C     -1.240646   -2.666620   -0.979451
N     -1.821470   -3.722352   -1.595741
C     -3.112434   -4.028705   -1.283153
N     -3.805646   -3.267826   -0.382868
C     -3.236727   -2.198717    0.251939
N     -4.020874   -1.400509    1.153166
C     -5.481018   -1.473655    1.192580
C     -6.093857   -0.836060   -0.062128
C     -5.694315    0.621514   -0.224836
C     -6.862913    1.194205   -0.964576
C     -8.008877    0.276723   -0.575037
O     -7.498962   -0.903575    0.007055
C     -1.895076   -1.910321   -0.045854
C     -0.994367   -0.921698    0.330629
C     -1.228675    0.216827    1.231410
C     -1.217580    0.028558    2.621996
C     -1.430471    1.113386    3.477257
C     -1.642188    2.390104    2.948855
C     -1.638529    2.584533    1.564404
C     -1.428054    1.501427    0.705950
H      6.689204   -1.820237   -0.745078
H      7.956636   -1.541570    0.481758
H      8.372654   -1.405797   -1.276505
H      9.223572    0.943725   -0.820301
H      8.792613    0.648092    0.912902
H      8.126920    2.074269    0.080294
H      7.564157    0.796237   -2.519567
H      6.062717   -0.123766   -2.227604
H      5.399627    2.170418   -2.645426
H      6.602893    2.801271   -1.500238
H      3.460854    1.508672    1.488690
H      1.408350    0.183503    1.621974
H      1.757406   -0.767243   -2.572746
H      3.812915    0.531440   -2.695429
H     -3.597082   -4.867500   -1.763185
H     -3.564370   -0.732518    1.807233
H     -5.802103   -2.533606    1.276107
H     -5.853897   -0.942191    2.095029
H     -5.763797   -1.406144   -0.959079
H     -5.597399    1.125162    0.762863
H     -4.748331    0.730174   -0.798695
H     -6.683103    1.135045   -2.061131
H     -7.058726    2.249344   -0.672532
H     -8.662881    0.784338    0.166590
H     -8.620144    0.018430   -1.466684
H     -1.051333   -0.956713    3.039920
H     -1.430858    0.964990    4.549464
H     -1.805645    3.228467    3.613002
H     -1.797358    3.574471    1.157393
H     -1.422673    1.661411   -0.364797
