67
Lipophilicity 1470 2.319999933242798
C     -1.270838    4.334605    2.805246
O     -2.316768    3.484730    2.346133
C     -2.128011    2.190484    1.834131
C     -0.850171    1.604699    1.736518
C     -0.696034    0.302660    1.224980
C      0.560518   -0.335609    1.104586
N      1.767822    0.273833    1.596359
C      3.060133    0.032319    1.023357
N      3.185278   -0.616629   -0.165817
C      4.403967   -0.831958   -0.724100
C      5.560425   -0.368323   -0.088498
N      6.851694   -0.620726   -0.669940
C      7.999201    0.222172   -0.469203
O      7.837314    1.426674   -0.131234
C      9.371109   -0.290501   -0.707855
C     10.439926    0.607141   -0.894429
C     11.735668    0.130901   -1.116321
C     11.981240   -1.243436   -1.148675
C     10.932218   -2.144386   -0.954506
C      9.634164   -1.674041   -0.731967
C      5.411143    0.287792    1.142252
N      4.172463    0.478523    1.664935
N      0.620013   -1.580943    0.557937
C     -0.492308   -2.227422    0.128607
N     -1.708160   -1.640369    0.246944
C     -1.837460   -0.398883    0.781507
C     -3.104397    0.180623    0.881382
C     -3.258235    1.477021    1.407997
O     -4.515084    2.096291    1.527750
C     -5.751015    1.561969    1.054187
C     -5.851982    1.706837   -0.470073
C     -7.118812    1.040894   -1.024314
N     -7.120150   -0.413627   -0.752339
C     -8.499387   -0.934123   -0.724371
C     -8.478330   -2.447927   -0.477417
O     -7.736788   -3.110131   -1.483519
C     -6.397620   -2.655088   -1.466973
C     -6.332811   -1.151693   -1.760628
H     -0.563561    4.551441    1.976927
H     -0.734567    3.857343    3.652645
H     -1.709617    5.291013    3.156662
H      0.013268    2.174126    2.042094
H      1.727495    0.870534    2.452409
H      4.470687   -1.355261   -1.668804
H      6.929010   -1.398048   -1.363951
H     10.273206    1.677069   -0.877550
H     12.550183    0.828442   -1.263826
H     12.985220   -1.609952   -1.319836
H     11.125443   -3.209426   -0.971631
H      8.845878   -2.395421   -0.561702
H      6.272441    0.628115    1.699854
H     -0.409794   -3.215844   -0.301248
H     -3.959085   -0.387705    0.542008
H     -5.863750    0.506324    1.380287
H     -6.578386    2.137256    1.521148
H     -5.878659    2.789103   -0.722664
H     -4.952970    1.283910   -0.961528
H     -7.992783    1.535246   -0.541744
H     -7.199492    1.246382   -2.115688
H     -9.021300   -0.721189   -1.685487
H     -9.067919   -0.454809    0.102883
H     -8.065720   -2.671788    0.532834
H     -9.521370   -2.828245   -0.499821
H     -5.911193   -2.882467   -0.490882
H     -5.831120   -3.197785   -2.252818
H     -5.268377   -0.838981   -1.725198
H     -6.723101   -0.963735   -2.786953
