40
Lipophilicity 1403 0.5
O      0.048308    1.269452   -0.142922
C      0.160499    0.018836   -0.026578
C      0.920405   -0.550332    1.133654
N      2.153491   -1.223905    0.667891
C      2.712714   -2.146893    1.683683
C      3.768174   -1.473842    2.584381
O      3.566354   -0.078994    2.634518
C      3.845062    0.494112    1.369522
C      3.179588   -0.268794    0.198692
N     -0.396899   -0.857730   -1.015401
C     -1.210610   -0.388532   -2.099348
C     -1.016062   -0.692245   -3.426655
C     -1.960284    0.049678   -4.105353
N     -2.696786    0.748782   -3.215830
N     -2.245400    0.477053   -1.998298
C     -2.863459    0.988486   -0.804796
C     -3.345456    2.307460   -0.777045
C     -3.957696    2.811945    0.374447
C     -4.105191    2.000249    1.502157
C     -3.647424    0.680406    1.477492
C     -3.035355    0.172085    0.327826
C     -0.001252   -1.536157   -3.996602
N      0.816014   -2.215438   -4.454443
H      0.241605   -1.278666    1.628301
H      1.145172    0.246952    1.875174
H      3.189467   -3.002018    1.158103
H      1.911292   -2.588765    2.316345
H      3.685548   -1.882993    3.613498
H      4.796829   -1.711688    2.225938
H      3.461587    1.536426    1.376807
H      4.945122    0.555428    1.214016
H      3.962863   -0.836237   -0.350564
H      2.752015    0.449067   -0.534380
H     -0.063926   -1.847568   -1.043806
H     -2.102302    0.085077   -5.177394
H     -3.233918    2.947706   -1.642990
H     -4.317989    3.832401    0.392276
H     -4.579813    2.391881    2.392542
H     -3.772603    0.048669    2.347374
H     -2.709685   -0.859704    0.317766
