68
Lipophilicity 1982 2.5
C     -8.367387    1.585496    3.387483
N     -7.466324    0.641971    2.709551
C     -7.897774   -0.744089    2.945611
C     -7.059656   -1.721407    2.094241
N     -5.747169   -1.167989    1.680262
C     -5.795879   -0.486782    0.366262
C     -4.419377   -0.408196   -0.239360
C     -3.752005    0.821598   -0.344229
C     -2.473688    0.885179   -0.906903
C     -1.842331   -0.279773   -1.379838
C     -2.507368   -1.513327   -1.251779
C     -3.783999   -1.575210   -0.687137
C     -0.492315   -0.201671   -1.989956
O      0.232450    0.806714   -1.764184
N     -0.028664   -1.231356   -2.881386
C      1.346500   -1.405678   -3.266168
C      1.641436   -1.962164   -4.516166
C      2.964792   -2.173334   -4.903922
C      4.022953   -1.829321   -4.048306
C      5.440702   -2.065548   -4.493632
C      3.739548   -1.285323   -2.776150
N      4.806109   -0.990486   -1.856386
C      4.873457    0.209438   -1.073089
N      3.959938    1.204391   -1.238009
C      4.037754    2.352023   -0.516999
C      5.073484    2.530515    0.399946
C      6.018074    1.503931    0.560565
N      5.892215    0.373676   -0.188462
C      7.166848    1.631583    1.494359
C      7.103035    2.438823    2.645793
C      8.203784    2.533065    3.499902
C      9.362952    1.816014    3.205055
N      9.413581    1.031598    2.096788
C      8.356172    0.920706    1.248673
C      2.400835   -1.095406   -2.389701
C     -5.154270   -0.327387    2.741416
C     -6.076329    0.837271    3.169092
H     -8.046743    2.630150    3.188717
H     -8.382912    1.412577    4.485861
H     -9.399043    1.477345    2.991745
H     -7.795328   -1.002222    4.025447
H     -8.969941   -0.866004    2.670449
H     -7.654786   -2.050804    1.213561
H     -6.878274   -2.642153    2.689895
H     -6.250800    0.523667    0.447150
H     -6.429230   -1.057279   -0.347484
H     -4.220777    1.732694    0.008325
H     -1.984535    1.849183   -0.985322
H     -2.037614   -2.434758   -1.570345
H     -4.277127   -2.534740   -0.594646
H     -0.746345   -1.804228   -3.379674
H      0.841377   -2.233512   -5.193762
H      3.163520   -2.606019   -5.876573
H      6.060879   -1.167481   -4.283777
H      5.861772   -2.938672   -3.951745
H      5.496940   -2.267806   -5.585937
H      5.620746   -1.642736   -1.809856
H      3.309226    3.134973   -0.672836
H      5.144667    3.463364    0.942202
H      6.202303    2.978660    2.903006
H      8.156221    3.151324    4.387101
H     10.222854    1.879361    3.858863
H      8.451344    0.287976    0.375238
H      2.183044   -0.749709   -1.388062
H     -4.952503   -0.970113    3.626398
H     -4.165909    0.068603    2.424340
H     -5.684676    1.780130    2.726759
H     -6.030436    0.938683    4.278401
