30
Lipophilicity 1859 1.399999976158142
C      0.422043    1.446092   -0.434984
C     -0.859487    1.996743    0.193933
C     -1.964852    0.994318    0.059503
C     -3.279982    1.399762   -0.215913
C     -4.301612    0.450102   -0.304049
C     -4.018800   -0.903314   -0.102624
C     -2.713515   -1.311031    0.187612
C     -1.677806   -0.365837    0.259558
C     -0.280509   -0.791418    0.634834
N      0.755149    0.101760    0.075346
C      2.121917   -0.367937   -0.007376
C      2.953698    0.019251   -1.074514
C      4.268823   -0.447427   -1.135286
N      4.745948   -1.272911   -0.167737
C      3.971046   -1.666942    0.876062
C      2.649784   -1.224917    0.976048
H      1.248731    2.153393   -0.204221
H      0.299047    1.398464   -1.538904
H     -0.687158    2.202147    1.272528
H     -1.126915    2.952740   -0.306960
H     -3.513813    2.447193   -0.360411
H     -5.314482    0.764139   -0.520736
H     -4.813262   -1.635949   -0.162236
H     -2.511115   -2.360863    0.359939
H     -0.107500   -1.825499    0.262560
H     -0.201215   -0.798163    1.742489
H      2.589326    0.664144   -1.862841
H      4.910391   -0.154532   -1.955647
H      4.381621   -2.323004    1.631973
H      2.054497   -1.540504    1.822052
