41
Lipophilicity 1925 3.2899999618530273
C      0.722364    4.532939    0.280382
C      1.014724    3.229767   -0.460972
C     -0.039625    2.174455   -0.229939
N     -1.188507    2.425766    0.441095
C     -1.821882    1.243468    0.424794
C     -3.054609    0.954517    1.001102
N     -3.809066    1.951155    1.692336
N     -3.532439   -0.314498    0.896760
C     -2.846115   -1.302660    0.248931
C     -3.402709   -2.584696    0.186710
C     -2.726660   -3.613506   -0.466672
C     -1.491568   -3.368340   -1.064578
C     -0.919355   -2.093852   -1.014867
C     -1.578654   -1.035955   -0.356431
C     -1.088518    0.293203   -0.239821
N      0.057900    0.886462   -0.671064
C      1.202764    0.326361   -1.406225
C      2.052132   -0.568542   -0.533380
C      2.723763   -1.662139   -1.106923
C      3.544854   -2.478711   -0.323611
C      3.720880   -2.198924    1.033481
C      3.083031   -1.096752    1.607484
C      2.260565   -0.277558    0.828230
H      0.664898    4.349377    1.374656
H     -0.235119    4.972174   -0.072570
H      1.537583    5.261329    0.085853
H      1.997718    2.844270   -0.115557
H      1.079035    3.443408   -1.549135
H     -3.456655    2.929968    1.783091
H     -4.730948    1.708609    2.118268
H     -4.362567   -2.785502    0.646731
H     -3.161743   -4.603597   -0.511170
H     -0.973071   -4.171710   -1.572370
H      0.024997   -1.979951   -1.499663
H      1.857126    1.135064   -1.789730
H      0.843169   -0.187151   -2.320922
H      2.606204   -1.886676   -2.159880
H      4.048620   -3.326120   -0.770344
H      4.358236   -2.830985    1.638215
H      3.230240   -0.873428    2.656270
H      1.789007    0.578961    1.291434
