68
Lipophilicity 1774 3.4000000953674316
C      3.095740    0.149511    2.781694
N      3.095573   -0.195249    1.356086
C      1.856747   -0.163717    0.543949
C      1.151306    1.212525    0.583400
C      0.040188    1.329946    1.638871
N     -0.900112    0.195047    1.597819
C     -1.738487    0.191506    0.375631
C     -3.085166   -0.506235    0.634229
C     -4.017365   -0.439606   -0.599944
C     -4.538495    0.965662   -0.847001
C     -5.359062    1.615894    0.095151
C     -5.822289    2.913714   -0.142927
C     -5.474213    3.576336   -1.321897
C     -4.662690    2.941663   -2.265199
C     -4.197090    1.644157   -2.031731
C     -5.171167   -1.429196   -0.534501
C     -5.616905   -2.042086   -1.721265
C     -6.688507   -2.939463   -1.698835
C     -7.339389   -3.223719   -0.496800
C     -6.923367   -2.607692    0.684698
C     -5.850836   -1.710809    0.669011
C     -0.195716   -1.079671    1.850024
C      0.934291   -1.367213    0.844555
C      4.330781   -0.645190    0.755933
O      4.297194   -1.410455   -0.247365
N      5.600995   -0.238612    1.293651
C      6.867791   -0.758613    0.782951
C      7.196946   -0.128765   -0.542947
C      7.552536    1.229085   -0.606682
C      7.856435    1.820994   -1.836566
C      7.807562    1.062871   -3.010100
C      7.447912   -0.286597   -2.956095
C      7.137509   -0.881216   -1.728047
H      2.093753    0.053540    3.227533
H      3.754939   -0.545449    3.344851
H      3.454658    1.191235    2.913717
H      2.153137   -0.281355   -0.522872
H      1.900770    2.016788    0.749704
H      0.695890    1.410307   -0.411811
H     -0.509772    2.284272    1.483665
H      0.474967    1.416448    2.653755
H     -1.958668    1.236393    0.064657
H     -1.216777   -0.292471   -0.475877
H     -2.903368   -1.573613    0.874978
H     -3.566605   -0.033835    1.515942
H     -3.388569   -0.747165   -1.465932
H     -5.637856    1.124211    1.016799
H     -6.447836    3.406838    0.592139
H     -5.831930    4.582103   -1.503163
H     -4.392127    3.456138   -3.178120
H     -3.566517    1.172699   -2.774515
H     -5.133912   -1.825830   -2.666696
H     -7.016175   -3.411815   -2.615792
H     -8.168187   -3.919302   -0.480393
H     -7.432866   -2.823898    1.615400
H     -5.558083   -1.244821    1.599221
H      0.212144   -1.071836    2.881000
H     -0.910122   -1.928156    1.838684
H      1.540151   -2.218093    1.225101
H      0.481299   -1.722122   -0.106175
H      5.637375    0.467466    2.061764
H      7.679821   -0.519677    1.503052
H      6.817683   -1.867247    0.708663
H      7.599284    1.826000    0.296266
H      8.130913    2.867593   -1.880640
H      8.049527    1.521688   -3.960366
H      7.413756   -0.874231   -3.865679
H      6.860652   -1.927608   -1.702837
