54
Lipophilicity 145 4.230000019073486
C     -9.307287    2.520964    0.724208
C     -9.355701    1.346740   -0.246523
O     -8.103735    1.190402   -0.909526
C     -6.980487    0.632663   -0.292540
N     -6.947557    0.134255    0.966764
O     -5.729825   -0.295831    1.175628
C     -4.987802   -0.096400    0.111750
C     -3.645203   -0.405751   -0.083337
C     -3.068831   -0.084188   -1.339781
O     -1.724997   -0.354318   -1.635465
C     -0.810058   -0.965264   -0.729478
C      0.557974   -1.096933   -1.403796
C      1.586959   -1.839310   -0.519169
C      1.872966   -1.063105    0.795352
C      3.307550   -1.258685    1.292160
N      4.259642   -0.822981    0.259205
C      3.946142   -1.058523   -1.160841
C      2.878662   -2.148067   -1.319626
C      5.524388   -0.244401    0.649025
C      6.266220    0.560206   -0.229905
C      7.480064    1.097308    0.192372
C      7.936377    0.822857    1.482999
C      9.226718    1.397069    1.974107
N      7.178973    0.047966    2.303194
N      6.016221   -0.467197    1.899869
C     -3.863787    0.530747   -2.339477
C     -5.219489    0.828374   -2.104430
C     -5.739208    0.495102   -0.859257
H    -10.305346    2.661590    1.189944
H     -8.563692    2.330571    1.525904
H     -9.028805    3.449270    0.182018
H     -9.628489    0.412535    0.291021
H    -10.137314    1.546628   -1.009399
H     -3.078588   -0.875143    0.709059
H     -1.184846   -1.974153   -0.450098
H     -0.724352   -0.336381    0.182402
H      0.414331   -1.660528   -2.351911
H      0.940668   -0.086138   -1.665918
H      1.142535   -2.822793   -0.244464
H      1.718887    0.028298    0.642148
H      1.163541   -1.392532    1.585486
H      3.436112   -0.658297    2.219333
H      3.486808   -2.327595    1.538477
H      4.859072   -1.397231   -1.697899
H      3.592093   -0.112484   -1.623900
H      2.661087   -2.299268   -2.399328
H      3.308403   -3.105127   -0.948662
H      5.908411    0.785709   -1.225544
H      8.056969    1.723272   -0.477334
H     10.043534    1.156240    1.261200
H      9.487538    0.975469    2.968172
H      9.133228    2.499637    2.065252
H     -3.425252    0.776554   -3.298147
H     -5.831421    1.298197   -2.863504
