17
Lipophilicity 413 2.200000047683716
O      3.882540   -0.016589   -0.238724
N      2.798071    0.830495   -0.230032
O      2.993874    2.059840   -0.326781
C      1.462897    0.307619   -0.111568
C      1.250380   -1.095445   -0.001834
C     -0.049890   -1.622821    0.114824
C     -1.111459   -0.724530    0.118571
N     -2.424342   -0.982473    0.217429
N     -3.081785    0.171783    0.178559
C     -2.179510    1.175851    0.053691
C     -0.919579    0.619891    0.014134
C      0.347535    1.182343   -0.102887
H      2.088649   -1.779671   -0.006514
H     -0.216295   -2.688994    0.198496
H     -2.874960   -1.919798    0.309779
H     -2.429365    2.226912   -0.003226
H      0.463238    2.255587   -0.183916
