48
Lipophilicity 41 2.0799999237060547
C      5.495123    3.177128   -1.679231
O      4.314502    2.674079   -1.062276
C      4.074661    1.317334   -0.796211
C      5.001797    0.313238   -1.122002
C      4.726505   -1.020446   -0.824235
C      3.523116   -1.373764   -0.207369
N      3.293694   -2.675775    0.097303
C      2.156644   -3.075441    0.713774
C      1.171433   -2.148004    1.043638
C      1.331998   -0.783904    0.716653
C      0.246300    0.248701    1.055757
O      0.650832    1.013028    2.162940
C     -1.195854   -0.299090    1.283283
C     -1.758522   -1.051417    0.038814
C     -3.169782   -0.514765   -0.302181
C     -3.017008    0.989820   -0.627462
C     -2.430510    1.724982    0.602086
N     -2.136060    0.779194    1.710323
C     -3.412771    0.150410    2.132544
C     -4.049182   -0.653689    0.967848
C     -3.753624   -1.283600   -1.475308
C     -4.964048   -1.024121   -1.984446
C      2.558845   -0.382916    0.109410
C      2.866198    0.966163   -0.182273
H      5.416952    4.280175   -1.765957
H      5.606790    2.747488   -2.697150
H      6.383824    2.931249   -1.060382
H      5.942734    0.554034   -1.597460
H      5.456796   -1.782200   -1.069049
H      2.016586   -4.121479    0.952115
H      0.293783   -2.522031    1.544952
H      0.176575    0.923052    0.180905
H      0.721720    0.393635    2.936106
H     -1.132512   -1.018877    2.128350
H     -1.812704   -2.141253    0.257535
H     -1.089336   -0.927438   -0.842232
H     -4.001681    1.436593   -0.886451
H     -2.344886    1.126862   -1.503650
H     -1.523521    2.297070    0.320003
H     -3.155318    2.493026    0.953349
H     -4.121174    0.933182    2.484282
H     -3.237359   -0.518126    3.004268
H     -5.075171   -0.270290    0.777199
H     -4.137437   -1.725219    1.254248
H     -3.171861   -2.081544   -1.929497
H     -5.594417   -0.240817   -1.577251
H     -5.333315   -1.604170   -2.823885
H      2.190648    1.769932    0.071395
