72
Lipophilicity 28 2.259999990463257
C     -3.703250    6.855409    2.138534
O     -2.617106    5.943215    2.020158
C     -2.511042    4.961845    1.023064
C     -3.483261    4.799847    0.016684
C     -3.333335    3.801622   -0.965464
O     -4.269346    3.609279   -1.992667
C     -5.440375    4.399177   -2.173462
C     -2.213212    2.965245   -0.926616
C     -1.250373    3.107503    0.081545
C     -1.394456    4.119477    1.039634
C     -0.059526    2.230518    0.091683
C      0.914024    2.459228   -0.886676
C      2.042268    1.654350   -0.945812
C      2.196433    0.596773   -0.045593
N      3.358579   -0.253687   -0.092897
C      4.003656   -0.670145   -1.304692
O      3.487777   -0.415961   -2.427852
O      5.194842   -1.397415   -1.226964
C      5.931037   -1.787693   -2.381982
C      7.132912   -2.584561   -1.964612
C      8.196559   -1.953309   -1.299365
C      9.314317   -2.692562   -0.899459
C      9.375836   -4.065418   -1.157961
C      8.318391   -4.701640   -1.814338
C      7.197739   -3.966823   -2.213756
C      1.214936    0.399724    0.943672
O      1.362806   -0.547310    1.765630
N      0.103188    1.212528    1.009977
C     -0.941725    0.930595    2.019544
C     -2.020179    0.070285    1.431659
O     -3.058520    0.611603    0.964066
N     -1.855407   -1.354143    1.371579
C     -2.860426   -2.236308    0.764451
C     -4.052503   -2.454976    1.738678
C     -3.645874   -3.137077    3.054692
C     -5.196548   -3.227434    1.067266
C     -2.215301   -3.541331    0.317704
O     -1.506983   -4.160317    1.098123
C     -2.413864   -4.107816   -1.065485
F     -2.873206   -5.408218   -0.964023
F     -1.203651   -4.109698   -1.734668
F     -3.329772   -3.374785   -1.799191
H     -4.653631    6.300507    2.288546
H     -3.532208    7.510881    3.016928
H     -3.770134    7.489190    1.229235
H     -4.347848    5.446366   -0.003075
H     -6.101385    4.313691   -1.284915
H     -5.162348    5.461375   -2.341290
H     -5.990105    4.031332   -3.063961
H     -2.096438    2.196392   -1.681595
H     -0.640142    4.249065    1.806825
H      0.800438    3.267428   -1.599743
H      2.800681    1.871788   -1.685716
H      3.711810   -0.668507    0.798819
H      5.279559   -2.384612   -3.057552
H      6.263245   -0.882137   -2.935142
H      8.159341   -0.890638   -1.091909
H     10.133194   -2.201382   -0.389423
H     10.242205   -4.635597   -0.849102
H      8.366545   -5.764448   -2.014327
H      6.385041   -4.474707   -2.719104
H     -1.381465    1.867185    2.416840
H     -0.517040    0.426793    2.914548
H     -1.006904   -1.770596    1.817116
H     -3.255430   -1.716378   -0.134626
H     -4.456864   -1.453299    2.004696
H     -2.803578   -2.594169    3.533083
H     -4.501939   -3.129292    3.762726
H     -3.351156   -4.193821    2.885398
H     -6.070101   -3.286917    1.751881
H     -5.519478   -2.705262    0.141570
H     -4.879927   -4.259825    0.808459
