46
Lipophilicity 350 1.399999976158142
C     -8.532832   -0.050423    1.250197
O     -7.539334   -0.486677    0.328162
C     -6.177940   -0.160457    0.417920
C     -5.308476   -0.658875   -0.558618
C     -3.943724   -0.359415   -0.515839
C     -3.428187    0.458751    0.504262
N     -2.025215    0.761654    0.585828
C     -1.176711    0.957862   -0.556205
O     -1.669550    1.090093   -1.709241
C      0.310703    1.010154   -0.382044
C      0.882038   -0.406164   -0.248962
C      2.387029   -0.368960   -0.052824
C      2.957801   -0.276913    1.256989
C      2.112900   -0.283004    2.499213
N      4.312945   -0.221477    1.412408
C      5.108746   -0.243343    0.322141
N      6.451698   -0.196192    0.335743
C      6.719746   -0.261401   -0.994807
C      8.100500   -0.192597   -1.553544
N      5.608022   -0.328064   -1.766477
N      4.606548   -0.320621   -0.908120
C      3.273437   -0.376841   -1.167942
C      2.783166   -0.502685   -2.588953
C     -4.294639    0.939315    1.496263
C     -5.660025    0.641895    1.452190
H     -9.518288   -0.452717    0.938200
H     -8.300787   -0.427826    2.268696
H     -8.587260    1.058816    1.256551
H     -5.691964   -1.289322   -1.350817
H     -3.291742   -0.789387   -1.264218
H     -1.611632    0.921059    1.532507
H      0.768147    1.527172   -1.252393
H      0.549972    1.609768    0.521140
H      0.391876   -0.928661    0.599087
H      0.619531   -1.000811   -1.149192
H      2.740998   -0.099657    3.396844
H      1.623246   -1.272128    2.616273
H      1.343027    0.513705    2.454389
H      8.116857   -0.603833   -2.584937
H      8.436968    0.864902   -1.576490
H      8.793174   -0.784219   -0.918809
H      3.601168   -0.332986   -3.318691
H      1.994225    0.247203   -2.798421
H      2.378017   -1.522735   -2.753082
H     -3.911587    1.556413    2.299547
H     -6.302592    1.039628    2.226074
