32
Lipophilicity 1632 0.5799999833106995
O      5.299617   -0.054680   -2.528862
C      5.527811   -0.793682   -1.370588
O      6.638000   -1.365066   -1.204308
C      4.489588   -0.915573   -0.335084
C      3.283602   -0.347651   -0.470956
C      2.203299   -0.454168    0.541144
C      2.461280   -0.745438    1.894514
C      1.411196   -0.827362    2.810845
C      0.096029   -0.612693    2.396502
C     -0.185588   -0.303851    1.055038
C      0.877504   -0.222136    0.136455
C     -1.583430   -0.064881    0.614516
C     -2.648459   -0.865445    1.114141
N     -3.936540   -0.648830    0.711285
C     -4.192286    0.344389   -0.173847
N     -5.395431    0.682543   -0.659859
C     -5.164608    1.720524   -1.497841
C     -3.807203    2.034945   -1.537244
C     -3.207541    1.137744   -0.681035
C     -1.880023    0.964285   -0.309778
H      6.014881    0.029449   -3.241285
H      4.726267   -1.508159    0.537941
H      3.056777    0.188041   -1.385669
H      3.469108   -0.886793    2.258782
H      1.618950   -1.047495    3.850159
H     -0.697955   -0.663564    3.130872
H      0.671240   -0.003246   -0.904701
H     -2.449282   -1.670493    1.809116
H     -6.315741    0.241526   -0.439353
H     -5.940283    2.228793   -2.055229
H     -3.329893    2.815117   -2.115284
H     -1.110886    1.613849   -0.708457
