63
Lipophilicity 1675 3.5999999046325684
C     -5.709234    3.469035   -0.905435
C     -4.980622    2.787077    0.259451
C     -5.986441    2.297886    1.319729
N     -4.057754    1.730651   -0.235781
C     -4.719674    0.572810   -0.888484
C     -3.727679   -0.571934   -1.192844
C     -2.284514   -0.060366   -1.240349
C     -1.873018    0.609491    0.095971
C     -1.181818   -0.366555    1.082414
N      0.105422   -0.881586    0.553522
C      1.197262   -0.039448    0.568999
O      1.089490    1.132924    1.029379
C      2.443966   -0.472020    0.087121
C      3.579071    0.361992    0.075623
C      4.811707   -0.113803   -0.410111
C      4.894413   -1.435536   -0.883162
C      3.770490   -2.264262   -0.870770
C      2.549647   -1.784224   -0.389335
N      1.465254   -2.589568   -0.377092
C      0.248116   -2.170036    0.064030
C     -0.876783   -3.199149    0.075407
C     -0.881273   -3.952637    1.409327
C     -0.753933   -4.188370   -1.093772
C      6.008307    0.766071   -0.422083
C      6.281233    1.618220    0.664880
C      7.408628    2.445194    0.650999
C      8.274499    2.432186   -0.445159
F      9.366748    3.235341   -0.456342
C      8.014404    1.591001   -1.529702
C      6.888912    0.761357   -1.520497
C     -3.083751    1.289988    0.782121
H     -6.465351    2.793121   -1.357313
H     -6.230673    4.381554   -0.544960
H     -4.978639    3.769642   -1.686281
H     -4.370151    3.586767    0.736568
H     -6.505882    3.172256    1.766746
H     -6.762511    1.640308    0.876934
H     -5.472159    1.759928    2.141386
H     -5.534200    0.160859   -0.257931
H     -5.162321    0.905759   -1.851016
H     -3.986766   -1.049204   -2.162774
H     -3.810959   -1.350569   -0.403966
H     -2.213809    0.692990   -2.056367
H     -1.595909   -0.880878   -1.522700
H     -1.148153    1.412808   -0.159714
H     -0.987006    0.172697    2.036555
H     -1.878017   -1.170476    1.383461
H      3.503006    1.384413    0.425616
H      5.833382   -1.834311   -1.246097
H      3.851647   -3.281470   -1.234015
H     -1.861261   -2.716616   -0.063000
H      0.070182   -4.510615    1.546103
H     -0.999881   -3.243893    2.255815
H     -1.726924   -4.672456    1.439821
H     -1.634229   -4.866156   -1.113575
H     -0.721526   -3.636025   -2.057482
H      0.163811   -4.808311   -1.000990
H      5.633339    1.632119    1.532312
H      7.611846    3.093906    1.493364
H      8.683097    1.583102   -2.380872
H      6.697829    0.129725   -2.378937
H     -2.708652    2.153047    1.376057
H     -3.574235    0.584250    1.490513
