43
Lipophilicity 1669 0.800000011920929
C     -5.505686    0.727795    1.093476
O     -4.268470    0.037396    0.958387
C     -3.076512    0.641232    0.536967
C     -2.980789    2.019267    0.177273
C     -1.760286    2.564083   -0.311302
C     -0.610042    1.756176   -0.388763
C      0.718131    2.168764   -1.034963
C      1.863212    1.070757   -0.944620
C      1.248746   -0.355043   -1.114740
C      2.136439   -1.602763   -1.155976
C      1.694183   -2.818887   -0.686751
C      0.346696   -3.025166    0.061555
O     -0.306246   -4.161995   -0.436074
C     -0.528336   -1.790854   -0.182006
O     -1.747053   -1.519749    0.530375
C     -1.918547   -0.128845    0.426262
C     -0.748828    0.455009    0.040839
C      0.304618   -0.532826    0.041801
C      1.061138   -0.446714    1.407806
C      1.822555    0.884916    1.544864
N      2.605930    1.230221    0.335531
C      3.932990    0.591320    0.334136
H     -5.406996    1.545385    1.838504
H     -6.281174    0.017111    1.445453
H     -5.820773    1.141588    0.112293
H     -3.847373    2.663746    0.231044
H     -1.721995    3.595164   -0.638071
H      0.516285    2.374253   -2.108201
H      1.070328    3.118798   -0.579024
H      2.553729    1.256886   -1.797222
H      0.687039   -0.346335   -2.077865
H      3.099692   -1.545103   -1.652589
H      2.362008   -3.670794   -0.767461
H      0.529467   -3.149299    1.152591
H      0.187665   -4.949158   -0.086402
H     -0.826601   -1.853843   -1.259818
H      0.347099   -0.546289    2.255303
H      1.799995   -1.265238    1.521396
H      2.482517    0.837652    2.439715
H      1.102146    1.703347    1.754841
H      4.557039    1.040170    1.135531
H      4.461165    0.767416   -0.627091
H      3.864894   -0.499547    0.522117
