50
Lipophilicity 425 2.299999952316284
C     -4.193910   -1.025045   -0.540065
N     -3.780249   -1.159883   -1.947892
C     -2.392427   -1.680119   -2.068143
C     -1.354628   -0.607466   -2.448482
N     -1.749788    0.695887   -1.907043
C     -3.077412    1.221327   -2.240615
C     -4.006395    0.087911   -2.709739
C     -0.880709    1.430113   -1.024778
C     -0.678231    2.806067   -1.210193
C      0.164365    3.518084   -0.354193
C      0.815397    2.864942    0.696997
N      1.633200    3.566710    1.521381
C      2.289133    2.980857    2.554546
C      2.144004    1.607437    2.809621
C      2.888968    0.990494    3.936172
O      2.380331    0.038832    4.586557
N      4.185967    1.464800    4.305941
C      1.296239    0.847555    1.970228
N      1.154794   -0.567492    2.176662
C      1.718954   -1.552929    1.290123
C      2.649717   -1.193003    0.295370
C      3.172304   -2.160553   -0.567286
C      2.777831   -3.494722   -0.445610
F      3.285437   -4.431189   -1.284366
C      1.861397   -3.864130    0.541815
C      1.334204   -2.900925    1.408327
F      0.438393   -3.281460    2.353717
C      0.619415    1.482236    0.904057
C     -0.245846    0.778637    0.044686
H     -5.220015   -0.603896   -0.472377
H     -4.218099   -2.026443   -0.059797
H     -3.492918   -0.374706    0.027404
H     -2.381475   -2.470918   -2.848134
H     -2.062457   -2.175902   -1.126680
H     -0.344169   -0.910791   -2.097660
H     -1.299282   -0.527851   -3.556066
H     -2.989461    1.990118   -3.037525
H     -3.523972    1.700319   -1.341735
H     -5.067540    0.409250   -2.623296
H     -3.824941   -0.110775   -3.788970
H     -1.163029    3.325940   -2.026240
H      0.313846    4.579049   -0.512829
H      2.912470    3.597969    3.187785
H      4.691316    2.172333    3.728525
H      4.677640    1.053376    5.130128
H      0.573137   -0.878311    2.986794
H      2.975506   -0.167251    0.183897
H      3.884677   -1.874285   -1.330334
H      1.556899   -4.898732    0.635099
H     -0.448588   -0.271465    0.207495
