24
Lipophilicity 724 0.7400000095367432
N      4.793240   -0.830442    0.198696
C      3.705076    0.092573    0.265899
O      3.944642    1.306187    0.498319
C      2.319870   -0.373762    0.058093
N      1.997488   -1.654893   -0.218022
N      0.676009   -1.720645   -0.310235
N      0.132966   -0.530073   -0.107542
C      1.134670    0.340622    0.130831
N      0.961589    1.702799    0.538385
C     -1.280832   -0.281844   -0.160201
C     -1.789743    0.851023   -0.818970
C     -3.169740    1.066862   -0.886540
C     -4.051462    0.148642   -0.310207
C     -3.554652   -0.991141    0.327588
C     -2.175257   -1.210511    0.396409
H      4.631870   -1.843936    0.007062
H      5.772592   -0.498210    0.343167
H      1.772042    2.344788    0.663939
H      0.016547    2.072327    0.778937
H     -1.121159    1.554818   -1.297620
H     -3.555846    1.942004   -1.393038
H     -5.119356    0.316285   -0.364596
H     -4.238395   -1.705882    0.767052
H     -1.802160   -2.097592    0.892593
