41
Lipophilicity 739 2.180000066757202
C      5.286315   -0.202570    3.061001
O      4.359571   -0.559800    2.060680
C      4.819683   -0.093776    0.809431
C      3.805344   -0.457839   -0.273762
N      2.523280    0.209731   -0.046047
C      1.408012    0.012992   -0.921731
N      1.517274   -0.817639   -2.011882
C      0.467410   -1.027712   -2.860879
N      0.603101   -1.901883   -3.981304
C     -0.724289   -0.367795   -2.586509
N     -1.902489   -0.422552   -3.237695
C     -2.684799    0.403563   -2.489238
O     -4.023458    0.644433   -2.780928
N     -2.043603    0.962066   -1.430534
C     -2.600956    1.813497   -0.381904
C     -3.080099    0.967591    0.765211
C     -4.375796    0.425337    0.751515
C     -4.806272   -0.396088    1.798145
C     -3.944389   -0.689259    2.858607
C     -2.649311   -0.164021    2.872570
C     -2.215072    0.658077    1.828122
C     -0.809997    0.448947   -1.510209
N      0.227538    0.655055   -0.664185
H      5.381216    0.902945    3.145484
H      6.280915   -0.665521    2.874062
H      4.917820   -0.582508    4.035894
H      5.790200   -0.573886    0.547235
H      4.950316    1.013188    0.815929
H      4.207523   -0.150588   -1.263430
H      3.655059   -1.559429   -0.279616
H      2.402658    0.849718    0.772221
H      1.510147   -2.386627   -4.161132
H     -0.195337   -2.068554   -4.633408
H     -4.465447    0.203351   -3.578124
H     -3.440815    2.416188   -0.791283
H     -1.828541    2.534204   -0.034761
H     -5.050471    0.637267   -0.068558
H     -5.806899   -0.808447    1.785179
H     -4.278545   -1.326511    3.667116
H     -1.980502   -0.396733    3.691110
H     -1.206294    1.051384    1.847605
