26
Lipophilicity 1030 1.690000057220459
O      4.746748   -0.809831   -1.604943
C      3.952005   -0.523878   -0.499770
C      2.567600   -0.398662   -0.650774
C      1.771724   -0.109260    0.472958
O      0.378364    0.030017    0.394801
C     -0.378299   -0.102249   -0.805154
C     -1.831047    0.112854   -0.497494
C     -2.639498   -0.967183   -0.106090
C     -3.984241   -0.758997    0.216799
C     -4.526509    0.528087    0.163147
C     -3.723584    1.610011   -0.208696
C     -2.378370    1.406102   -0.532353
C      2.387891    0.046663    1.718591
C      3.773866   -0.086324    1.827267
N      4.520043   -0.366151    0.726420
H      5.751147   -0.903754   -1.512495
H      2.130319   -0.526728   -1.631696
H     -0.034045    0.646890   -1.551458
H     -0.228123   -1.116975   -1.234651
H     -2.229142   -1.967968   -0.050777
H     -4.604924   -1.594972    0.512421
H     -5.567024    0.687760    0.414733
H     -4.142544    2.607424   -0.242372
H     -1.764561    2.254419   -0.809154
H      1.795587    0.269601    2.596987
H      4.256616    0.033104    2.787985
