49
Lipophilicity 611 1.6100000143051147
N     -6.938443    2.077584    1.182938
C     -6.648254    0.684035    1.322402
O     -7.529379   -0.074598    1.809768
C     -5.347097    0.115603    0.892443
C     -5.245275   -1.253558    0.593021
C     -4.025992   -1.800098    0.190143
C     -2.892497   -0.992501    0.088418
C     -2.966263    0.377713    0.396536
O     -1.862196    1.247599    0.327287
C     -0.513845    0.936750   -0.047070
C      0.187495   -0.009469    0.973794
C      1.390186   -0.767615    0.347394
C      0.942859   -2.116065   -0.237442
C      0.626714   -1.806412   -1.692844
C      0.898527   -0.301002   -1.826962
C     -0.388677    0.523420   -1.544858
N      1.884225    0.028468   -0.787620
C      3.265283   -0.320986   -1.185134
C      4.250037    0.286172   -0.222074
C      5.002991   -0.527781    0.641136
C      5.899690    0.047700    1.546821
C      6.048496    1.436416    1.599210
C      5.299505    2.252479    0.746956
C      4.401644    1.681212   -0.160055
C     -4.195044    0.918944    0.798184
H     -7.838648    2.460248    1.548381
H     -6.315552    2.718032    0.644436
H     -6.111521   -1.900204    0.659503
H     -3.959348   -2.854607   -0.045171
H     -1.970354   -1.448637   -0.225635
H      0.044906    1.897038    0.028253
H     -0.530226   -0.711145    1.444530
H      0.569611    0.615564    1.810921
H      2.170452   -0.922826    1.125585
H      1.778906   -2.847053   -0.178937
H      0.070890   -2.558286    0.289351
H     -0.412755   -2.092661   -1.960314
H      1.318875   -2.370134   -2.356284
H      1.268363   -0.062011   -2.849895
H     -1.293538   -0.007953   -1.902147
H     -0.344588    1.454439   -2.152021
H      3.407781   -1.421882   -1.257360
H      3.485317    0.096165   -2.192584
H      4.893007   -1.604854    0.616882
H      6.477705   -0.583012    2.209815
H      6.742366    1.880082    2.301449
H      5.413157    3.327946    0.790486
H      3.822365    2.323686   -0.811864
H     -4.231861    1.968057    1.059062
