39
Lipophilicity 45 3.2899999618530273
C      6.259341    0.427570   -0.303220
O      5.091429   -0.386328   -0.267338
C      3.778526    0.107012   -0.198958
C      3.500690    1.484679   -0.164044
C      2.182300    1.941254   -0.092708
N      1.938300    3.276639   -0.086812
C      0.672725    3.756302   -0.030284
N     -0.376248    2.900243    0.036384
C     -0.204725    1.549393    0.044585
N     -1.364464    0.704763    0.161686
C     -2.708194    1.228984   -0.084742
C     -3.732145    0.129617    0.005446
C     -4.361876   -0.154301    1.228570
C     -5.283820   -1.202010    1.318846
C     -5.573690   -1.979104    0.193823
C     -4.938486   -1.712790   -1.022370
C     -4.016034   -0.665961   -1.116881
C      1.109262    1.023505   -0.038682
C      1.391965   -0.355877   -0.097360
C      2.722455   -0.814937   -0.171250
O      3.037353   -2.182911   -0.222184
C      2.079878   -3.236854   -0.200304
H      7.154569   -0.225430   -0.353062
H      6.243864    1.078320   -1.202927
H      6.321881    1.046658    0.616583
H      4.302595    2.210492   -0.197179
H      0.499274    4.823512   -0.031293
H     -1.271693   -0.273061    0.513688
H     -2.937278    2.026864    0.654948
H     -2.744813    1.688224   -1.096834
H     -4.138109    0.433439    2.110266
H     -5.770492   -1.414082    2.262063
H     -6.286250   -2.790606    0.265757
H     -5.157836   -2.320128   -1.890988
H     -3.522470   -0.476438   -2.062113
H      0.594963   -1.079718   -0.108169
H      2.611071   -4.209563   -0.244688
H      1.406770   -3.159946   -1.080202
H      1.489412   -3.197426    0.739422
