92
Lipophilicity 1665 2.9000000953674316
C      2.929445    4.540636   -1.189713
C      4.192437    4.105906   -0.421240
C      5.382638    3.923664   -1.388309
C      4.555251    5.212447    0.591607
N      3.930875    2.850260    0.308866
C      3.612655    1.586796   -0.309194
O      3.533493    1.484061   -1.561191
C      3.419241    0.357029    0.542862
C      4.608190   -0.610118    0.309839
N      4.270313   -1.563053   -0.761521
C      5.437729   -2.315067   -1.281067
C      6.215699   -3.065987   -0.217163
C      5.919279   -4.404261    0.085353
C      6.636069   -5.072258    1.080711
C      7.658784   -4.401656    1.752681
N      7.953465   -3.115476    1.432985
C      7.263306   -2.441141    0.474512
C      3.135717   -2.435874   -0.389008
C      2.116374   -1.709993    0.508095
N      2.101077   -0.262328    0.217801
C      0.984255    0.408109    0.940776
C     -0.118937    0.908659   -0.019131
O      0.442806    1.778363   -0.970649
C     -0.944128   -0.203207   -0.729544
C     -2.176392   -0.774198    0.024108
C     -1.817993   -1.663960    1.233294
C     -2.992885   -2.507265    1.662070
C     -3.764911   -2.139534    2.776966
C     -4.873978   -2.905069    3.151214
C     -5.224522   -4.037266    2.410663
C     -4.467620   -4.404863    1.294505
C     -3.355259   -3.644911    0.920270
C     -3.182331    0.295018    0.393971
O     -3.057492    0.931388    1.475972
N     -4.286960    0.575719   -0.478360
C     -5.430193    1.385698   -0.048142
C     -6.583430    0.507224    0.511002
O     -6.149367   -0.798084    0.797656
C     -7.702089    0.499841   -0.556603
C     -7.296106    1.568790   -1.498922
C     -8.034300    2.051865   -2.583429
C     -7.475988    3.057297   -3.388577
C     -6.194109    3.558722   -3.095696
C     -5.465361    3.056036   -2.005297
C     -6.042953    2.056503   -1.220709
H      2.656652    3.804029   -1.975194
H      3.095400    5.520494   -1.688468
H      2.067284    4.641780   -0.491434
H      5.125187    3.253279   -2.234381
H      5.687420    4.899596   -1.825536
H      6.257443    3.490170   -0.851593
H      4.760189    6.174622    0.071383
H      5.459492    4.926882    1.173326
H      3.718811    5.377171    1.305921
H      3.985037    2.865083    1.352296
H      3.458928    0.637428    1.624451
H      4.820819   -1.161317    1.256610
H      5.529547   -0.037533    0.049124
H      6.121935   -1.607340   -1.802693
H      5.099013   -3.028171   -2.066930
H      5.137274   -4.932618   -0.447754
H      6.407096   -6.100698    1.322108
H      8.222095   -4.904344    2.525848
H      7.536750   -1.418535    0.247167
H      2.625308   -2.757372   -1.324556
H      3.475571   -3.344674    0.151316
H      1.124570   -2.161436    0.319428
H      2.370739   -1.884300    1.581695
H      0.551131   -0.238385    1.728021
H      1.341590    1.308579    1.491923
H     -0.810732    1.526204    0.590457
H      0.920431    1.224168   -1.645036
H     -1.336129    0.225742   -1.681094
H     -0.279350   -1.033557   -1.042988
H     -2.670467   -1.442059   -0.717308
H     -1.471310   -1.043316    2.085507
H     -0.995133   -2.352660    0.963359
H     -3.511789   -1.260779    3.355068
H     -5.461716   -2.619015    4.013562
H     -6.089847   -4.625967    2.695366
H     -4.745693   -5.274638    0.712606
H     -2.779731   -3.936158    0.048903
H     -4.374333    0.029269   -1.366633
H     -5.120665    2.154294    0.692715
H     -6.968987    0.989997    1.440314
H     -6.875487   -1.235220    1.310384
H     -7.746858   -0.473616   -1.092022
H     -8.689599    0.735629   -0.106420
H     -9.017580    1.654386   -2.802002
H     -8.033552    3.448037   -4.234389
H     -5.764652    4.329158   -3.717800
H     -4.473894    3.433252   -1.778946
