59
Lipophilicity 1805 2.390000104904175
O      3.251647   -1.565042   -2.152684
C      3.486272   -0.511166   -1.500002
N      4.818508    0.029959   -1.479497
C      5.926288   -0.580822   -2.211259
C      6.414748   -1.896302   -1.556148
N      7.108483   -1.757906   -0.251801
C      6.236935   -1.388939    0.872589
C      6.685920   -0.029881    1.400289
C      7.813916    0.419237    0.491671
C      8.245465   -0.831328   -0.252189
C      2.384681    0.129625   -0.742388
C      1.306301   -0.648228   -0.286433
C      0.260447   -0.063051    0.432587
C      0.260476    1.317993    0.689559
N     -0.792164    1.940454    1.445554
C     -2.174103    1.562813    1.366010
N     -3.057910    2.061330    2.272391
C     -4.379358    1.751234    2.215697
C     -4.853958    0.911229    1.203968
C     -6.208617    0.563878    1.107103
C     -6.650941   -0.285553    0.074988
C     -5.714704   -0.777607   -0.855102
C     -4.364159   -0.429041   -0.759193
C     -3.929783    0.412656    0.267463
N     -2.618804    0.753086    0.366083
C     -8.084723   -0.658060   -0.031536
C     -8.461222   -1.970848   -0.363994
C     -9.815577   -2.299994   -0.457203
N    -10.765096   -1.355064   -0.229284
C    -10.434249   -0.077079    0.092963
C     -9.091996    0.294987    0.198458
C      1.340349    2.093380    0.246757
C      2.387805    1.509784   -0.471658
H      5.019579    0.902915   -0.945715
H      6.754495    0.149035   -2.307602
H      5.593558   -0.800373   -3.248649
H      7.115843   -2.385116   -2.266617
H      5.563591   -2.602035   -1.448014
H      6.356129   -2.151201    1.672433
H      5.160103   -1.378512    0.603758
H      5.849479    0.701615    1.384631
H      7.056231   -0.129062    2.444293
H      8.656322    0.852978    1.073217
H      7.442444    1.180424   -0.227489
H      9.081729   -1.309487    0.302705
H      8.621996   -0.599403   -1.272234
H      1.282684   -1.715886   -0.466954
H     -0.532167   -0.695974    0.808649
H     -0.553017    2.775060    2.027777
H     -5.053686    2.162844    2.956226
H     -6.911391    0.938543    1.842238
H     -6.030565   -1.418533   -1.668432
H     -3.658124   -0.813009   -1.485275
H     -7.717219   -2.739318   -0.532029
H    -10.111851   -3.309895   -0.707683
H    -11.214099    0.652631    0.265059
H     -8.844920    1.320876    0.440306
H      1.360899    3.157924    0.444166
H      3.181082    2.149678   -0.832524
