42
Lipophilicity 1676 3.799999952316284
C      6.706043    0.909428   -0.642844
N      5.334279    0.495143   -0.301055
C      5.057731   -0.814903    0.012302
O      5.966892   -1.689586    0.009891
C      3.759056   -1.204818    0.338740
C      2.750040   -0.245002    0.348412
C      1.330552   -0.621736    0.657489
C      0.609635   -1.087801   -0.610326
C     -0.816940   -1.455835   -0.301594
C     -1.143049   -2.767771    0.072536
C     -2.461419   -3.101514    0.387453
C     -3.462821   -2.128715    0.342574
C     -3.154035   -0.803693   -0.014384
C     -1.822641   -0.476007   -0.331973
C     -4.215740    0.234324   -0.050551
C     -5.489035   -0.062216   -0.573100
C     -6.486567    0.917068   -0.606403
C     -6.226352    2.199716   -0.118995
C     -4.967630    2.506165    0.402688
C     -3.966002    1.531163    0.437688
N      3.048854    1.035475    0.019841
C      4.313219    1.419570   -0.299070
N      4.539273    2.796137   -0.631132
H      7.434100    0.073811   -0.587625
H      7.051817    1.691768    0.065907
H      6.732963    1.304241   -1.680771
H      3.539799   -2.238949    0.578562
H      0.802677    0.258890    1.085455
H      1.312957   -1.430253    1.421550
H      0.632549   -0.278731   -1.373770
H      1.140044   -1.964968   -1.042963
H     -0.376062   -3.530875    0.121672
H     -2.707049   -4.115840    0.674484
H     -4.474518   -2.407612    0.609116
H     -1.566901    0.537110   -0.618312
H     -5.707533   -1.044961   -0.971631
H     -7.461386    0.681790   -1.013734
H     -7.000101    2.956080   -0.145408
H     -4.768394    3.499444    0.783804
H     -3.003150    1.785931    0.862440
H      5.475064    3.170840   -0.897368
H      3.739778    3.467693   -0.615936
