63
Lipophilicity 27 0.7699999809265137
C     -5.347282    1.044800   -2.634413
O     -5.771687    1.557883   -1.375438
C     -5.566282    0.920137   -0.141635
C     -6.092736    1.522816    1.001454
C     -5.936914    0.927318    2.250255
C     -5.249162   -0.282318    2.373343
N     -5.119548   -0.844290    3.598287
C     -4.460231   -2.011238    3.768673
C     -3.892787   -2.656326    2.670783
O     -3.271248   -3.737972    2.865242
N     -4.005597   -2.119568    1.406138
C     -3.325769   -2.826794    0.292210
C     -1.832420   -2.469940    0.242330
N     -1.639525   -1.007076    0.124846
C     -1.645886   -0.547505   -1.291892
C     -0.238049   -0.259103   -1.824964
C      0.407171    0.888532   -1.011843
N      1.860566    1.014946   -1.271244
C      2.681987   -0.133178   -0.846534
C      4.138606    0.200937   -0.990481
C      4.903617    0.579314    0.125091
C      6.244345    0.921650   -0.055925
O      7.037196    1.321053    1.024084
C      8.311754    1.935883    0.816848
C      9.037821    1.271444   -0.360836
O      8.166801    1.175452   -1.492102
C      6.811982    0.869184   -1.332771
C      6.015853    0.514926   -2.423404
N      4.708410    0.192552   -2.229603
C      0.006282    0.846344    0.499145
O      1.054042    1.285472    1.326770
C     -0.459594   -0.564378    0.908854
C     -4.687719   -0.922223    1.236699
C     -4.859002   -0.293932   -0.023985
H     -5.677143    1.735918   -3.437424
H     -5.804566    0.048264   -2.815074
H     -4.239449    0.972319   -2.665587
H     -6.631766    2.458123    0.917206
H     -6.356541    1.405969    3.127469
H     -4.372791   -2.434361    4.761416
H     -3.809463   -2.667128   -0.687164
H     -3.415211   -3.927130    0.431187
H     -1.339842   -3.010094   -0.598118
H     -1.368847   -2.862041    1.177068
H     -2.243569    0.387583   -1.351962
H     -2.146909   -1.279841   -1.964676
H      0.339523   -1.201333   -1.755453
H     -0.293630    0.028084   -2.898328
H     -0.052143    1.820844   -1.415391
H      2.205417    1.885242   -0.798463
H      2.467003   -0.427403    0.201947
H      2.483833   -1.008177   -1.498342
H      4.463960    0.621121    1.114347
H      8.920563    1.850067    1.741828
H      8.159892    3.013348    0.588164
H      9.354945    0.249317   -0.061142
H      9.940172    1.857082   -0.635095
H      6.435345    0.486178   -3.420248
H     -0.864081    1.532070    0.639996
H      0.668258    1.438953    2.227670
H     -0.737683   -0.553764    1.984905
H      0.384865   -1.278010    0.787362
H     -4.455137   -0.718291   -0.922079
