52
Lipophilicity 944 1.5399999618530273
C     10.588942   -0.499297    2.273680
O      9.207858   -0.687877    1.991089
C      8.318864    0.379867    1.836921
O      8.717153    1.571702    1.949207
C      6.885564    0.106751    1.527238
O      6.577572    0.615141    0.232058
C      5.317369    0.523583   -0.376968
C      4.220300   -0.099952    0.246429
C      2.984450   -0.169813   -0.404290
C      2.824183    0.385020   -1.688882
O      1.609239    0.339691   -2.392882
C      0.380307   -0.191719   -1.896844
C     -0.285724    0.793441   -0.931149
N     -1.491117    0.194350   -0.339723
C     -2.682919    0.460212   -1.158355
C     -3.874135   -0.373421   -0.649455
O     -4.174314   -0.060829    0.687308
C     -5.109841   -0.185982   -1.547882
O     -6.138542   -1.113473   -1.195623
C     -7.065853   -0.967744   -0.150337
C     -7.266861    0.247973    0.535029
C     -8.209505    0.327568    1.565307
C     -8.960165   -0.796142    1.918695
C     -8.772819   -2.001561    1.239193
C     -7.832639   -2.084716    0.207784
C      3.918957    1.003673   -2.303042
C      5.154356    1.072459   -1.653192
H     11.070131    0.073709    1.452999
H     10.710114    0.046095    3.233482
H     11.081885   -1.489442    2.358013
H      6.248039    0.603493    2.290398
H      6.703659   -0.989538    1.553660
H      4.312174   -0.534902    1.232153
H      2.165386   -0.659277    0.103004
H      0.545671   -1.178579   -1.414089
H     -0.290669   -0.360485   -2.764007
H     -0.515400    1.748051   -1.457606
H      0.432200    1.038611   -0.118601
H     -1.642076    0.643531    0.594599
H     -2.937725    1.544253   -1.126891
H     -2.487764    0.181871   -2.216891
H     -3.582238   -1.445300   -0.693006
H     -4.344943    0.915822    0.735457
H     -4.817326   -0.401331   -2.597755
H     -5.477763    0.860475   -1.531471
H     -6.715168    1.139704    0.279683
H     -8.360575    1.263517    2.087987
H     -9.689084   -0.731817    2.716216
H     -9.356642   -2.871561    1.510682
H     -7.694696   -3.023090   -0.313714
H      3.811725    1.432486   -3.291066
H      5.990404    1.553793   -2.144546
