26
Lipophilicity 659 1.1299999952316284
N     -2.449941   -2.028073   -0.266412
C     -2.880038   -1.008557    0.638335
O     -3.870345   -1.230451    1.385883
C     -2.210216    0.311424    0.684748
C     -2.973269    1.466047    0.923170
C     -2.362097    2.719080    0.959457
C     -0.985002    2.811970    0.769689
N     -0.250918    1.688433    0.562777
C     -0.816442    0.448696    0.513122
O     -0.010954   -0.689133    0.362839
C      1.293084   -0.698015   -0.152851
C      2.181734   -1.685156    0.292272
C      3.487822   -1.738321   -0.204532
C      3.910998   -0.811539   -1.160843
C      3.025923    0.164132   -1.627138
C      1.719290    0.220380   -1.131526
H     -2.898540   -2.970636   -0.242913
H     -1.760261   -1.825575   -1.023154
H     -4.045061    1.399309    1.065171
H     -2.951277    3.610341    1.132671
H     -0.496391    3.776693    0.797137
H      1.860509   -2.408035    1.031453
H      4.170957   -2.499065    0.150540
H      4.921366   -0.854672   -1.546539
H      3.349565    0.871591   -2.379676
H      1.039504    0.959132   -1.533682
