71
Lipophilicity 2019 4.300000190734863
C      2.476476    3.047746    1.826241
C      2.382181    1.533804    1.644382
N      2.823789    1.126251    0.297215
C      1.841874    0.731604   -0.737645
C      1.214730   -0.633486   -0.410443
C      0.141221   -1.016541   -1.447115
N     -0.874487    0.042881   -1.654442
C     -1.850334    0.155134   -0.546295
C     -2.991293   -0.856615   -0.735891
C     -4.118469   -0.665835    0.309990
C     -4.839827    0.668482    0.190310
C     -5.336093    1.135286   -1.043763
C     -6.003658    2.361087   -1.122237
C     -6.200017    3.127599    0.027966
C     -5.733496    2.667112    1.261444
C     -5.060615    1.444448    1.344734
C     -5.122940   -1.805226    0.294004
C     -5.524370   -2.394399    1.507959
C     -6.471020   -3.423347    1.520672
C     -7.035756   -3.869517    0.324374
C     -6.658910   -3.284336   -0.886526
C     -5.713350   -2.254323   -0.904354
C     -0.249345    1.337112   -2.003711
C      0.750190    1.798112   -0.933820
C      4.243533    0.995197    0.049721
O      5.059109    1.686989    0.719610
N      4.748819    0.071970   -0.930895
C      6.146099    0.081270   -1.361399
C      7.026998   -0.537499   -0.305355
C      7.932765    0.248732    0.435077
F      8.039229    1.582974    0.211491
C      8.737909   -0.341599    1.416170
C      8.643256   -1.712094    1.670663
C      7.750561   -2.498726    0.940746
C      6.942576   -1.917501   -0.041850
F      6.081122   -2.699810   -0.739680
H      3.528311    3.390761    1.762424
H      2.086464    3.326313    2.828957
H      1.880163    3.572191    1.053853
H      1.334006    1.223930    1.832238
H      3.003516    1.026876    2.413649
H      2.354800    0.648648   -1.720643
H      2.006714   -1.412745   -0.414397
H      0.774156   -0.631607    0.606000
H      0.641713   -1.225873   -2.418092
H     -0.341372   -1.966909   -1.137674
H     -1.372385   -0.002126    0.443370
H     -2.296052    1.174597   -0.526730
H     -3.380545   -0.769395   -1.770917
H     -2.582149   -1.883273   -0.624387
H     -3.600283   -0.691376    1.296760
H     -5.210083    0.560920   -1.949685
H     -6.371730    2.715987   -2.077080
H     -6.719719    4.075263   -0.035148
H     -5.894055    3.256919    2.154366
H     -4.711694    1.103932    2.311494
H     -5.106652   -2.055769    2.447319
H     -6.770870   -3.870851    2.459494
H     -7.769659   -4.664705    0.335836
H     -7.101571   -3.625977   -1.813322
H     -5.446700   -1.815029   -1.855178
H     -1.027217    2.118460   -2.151463
H      0.274249    1.238372   -2.980468
H      0.198636    1.994886    0.008802
H      1.220000    2.750438   -1.262544
H      4.119422   -0.648519   -1.349417
H      6.244839   -0.506122   -2.300772
H      6.454379    1.121150   -1.604506
H      9.434802    0.264058    1.982764
H      9.267019   -2.165766    2.430213
H      7.681095   -3.560596    1.141983
