48
Lipophilicity 867 3.549999952316284
C     -5.247902    1.607903   -0.967918
C     -4.396933    0.460233   -1.524359
C     -5.241485   -0.750723   -1.936802
N     -3.320701    0.076561   -0.586248
C     -3.426566   -0.424993    0.680201
C     -4.584013   -0.717533    1.418139
C     -4.437146   -1.234483    2.717993
C     -3.156381   -1.456387    3.263070
C     -2.005726   -1.162943    2.515838
C     -2.178112   -0.649422    1.231558
C     -1.258651   -0.278965    0.283276
C      0.134526   -0.307824    0.303874
C      0.827901    0.140698   -0.841534
N      2.264634    0.108403   -0.902915
C      3.113012    0.349401    0.236880
O      2.632328    0.916343    1.256314
N      4.506827   -0.035647    0.233011
C      5.144765   -0.343930    1.522607
C      6.670841   -0.317184    1.409857
O      7.103378   -1.082621    0.306195
C      6.688566   -0.447327   -0.884423
C      5.160978   -0.461503   -1.014922
C      0.096449    0.568309   -1.974478
C     -1.309901    0.586218   -1.966931
C     -1.977305    0.155697   -0.811755
H     -4.587081    2.428893   -0.619399
H     -5.907180    2.009120   -1.765614
H     -5.890153    1.286522   -0.126632
H     -3.954258    0.849220   -2.461574
H     -4.579136   -1.552615   -2.327046
H     -5.829564   -1.158434   -1.093462
H     -5.947990   -0.460920   -2.743434
H     -5.576786   -0.565838    1.029503
H     -5.317110   -1.465013    3.305718
H     -3.059770   -1.854958    4.264407
H     -1.019020   -1.331582    2.928210
H      0.659454   -0.690513    1.168566
H      2.692798   -0.046852   -1.841784
H      4.817592   -1.353081    1.854915
H      4.844256    0.397839    2.295183
H      7.044147    0.732543    1.351936
H      7.101398   -0.758567    2.333815
H      7.078040    0.595730   -0.945135
H      7.122320   -0.998084   -1.745752
H      4.818296   -1.487249   -1.274987
H      4.897552    0.231988   -1.841981
H      0.622239    0.894573   -2.863156
H     -1.833426    0.921990   -2.848823
