57
Lipophilicity 793 0.20000000298023224
C     -2.526344   -2.519153    0.670334
C     -3.260524   -1.626784   -0.369500
C     -4.662121   -2.214927   -0.663505
N     -3.247875   -0.119852   -0.108533
C     -3.492490    0.556822   -1.425376
C     -1.900862    0.337206    0.393125
C     -0.718706    0.120026   -0.579541
O      0.500115    0.406393    0.098385
C      1.749224    0.301968   -0.519431
O      1.840244   -0.050203   -1.728530
C      2.990069    0.602031    0.273071
C      3.739736    1.749383   -0.372196
C      3.189187    3.042853   -0.357097
C      3.839880    4.094603   -1.008172
C      5.040703    3.864095   -1.683681
C      5.598396    2.583096   -1.702223
C      4.958725    1.527319   -1.043339
O      5.550613    0.262575   -1.041774
C      5.036312   -0.797181   -0.291956
C      5.751306   -1.997956   -0.221632
C      5.271562   -3.057392    0.552739
C      4.073772   -2.921629    1.258521
C      3.348238   -1.729250    1.184683
C      3.820104   -0.657999    0.405972
C     -4.356176    0.330278    0.844576
C     -4.338335   -0.323262    2.247417
C     -4.457444    1.868946    1.049121
H     -2.643801   -3.588974    0.394423
H     -1.434587   -2.332459    0.674966
H     -2.893913   -2.412541    1.701183
H     -2.694899   -1.836719   -1.305075
H     -5.286501   -2.281281    0.248279
H     -4.560111   -3.245817   -1.065894
H     -5.199523   -1.623775   -1.430961
H     -2.927522    0.088516   -2.260615
H     -3.169317    1.620466   -1.416248
H     -4.565800    0.538904   -1.713647
H     -1.904762    1.425790    0.603105
H     -1.646266   -0.146271    1.356907
H     -0.677735   -0.919833   -0.956877
H     -0.808304    0.806420   -1.448367
H      2.692931    0.923140    1.296242
H      2.250163    3.231186    0.148840
H      3.409017    5.087413   -0.995220
H      5.540977    4.679099   -2.190537
H      6.533668    2.411751   -2.219801
H      6.684576   -2.105297   -0.759637
H      5.829929   -3.982939    0.608092
H      3.703350   -3.743437    1.857464
H      2.412350   -1.643036    1.723069
H     -5.342203    0.057880    0.407229
H     -4.696400   -1.368221    2.214191
H     -3.345931   -0.262365    2.733405
H     -5.056916    0.190058    2.922237
H     -5.391895    2.108097    1.601557
H     -4.528846    2.428726    0.097605
H     -3.619040    2.263514    1.658634
