47
Lipophilicity 680 2.8299999237060547
C      0.816821   -2.882842   -1.547253
N      1.383937   -1.591908   -1.123049
C      0.668629   -0.443355   -1.727643
C     -0.769854   -0.332402   -1.282666
C     -1.208588    0.716332   -0.585412
C     -2.579971    0.791147   -0.162428
C     -3.730274    0.852001    0.193851
C     -5.137017    0.924057    0.629907
C     -5.452562   -0.298263    1.507466
C     -5.346395    2.215970    1.436628
C     -6.046444    0.927397   -0.609695
C      1.478111   -1.516683    0.351096
C      2.375591   -0.375341    0.784072
C      1.801813    0.696939    1.489500
C      2.574459    1.786227    1.888634
C      3.935453    1.827797    1.596011
C      4.541257    0.772105    0.901760
C      5.914653    0.820305    0.614746
C      6.527105   -0.227712   -0.072718
C      5.777966   -1.331774   -0.477675
C      4.410215   -1.396417   -0.200815
C      3.766116   -0.346362    0.489501
H      0.690449   -2.911774   -2.650917
H     -0.164060   -3.074614   -1.060239
H      1.513581   -3.704444   -1.276049
H      0.682470   -0.540500   -2.834605
H      1.225430    0.494386   -1.510287
H     -1.458196   -1.127156   -1.546035
H     -0.540473    1.526305   -0.322140
H     -4.794875   -0.318238    2.403880
H     -5.295878   -1.240833    0.938657
H     -6.509354   -0.269455    1.850695
H     -6.401012    2.295487    1.778551
H     -4.687157    2.230863    2.331998
H     -5.112472    3.108539    0.816076
H     -5.822303    1.802096   -1.258653
H     -7.115180    0.980851   -0.309029
H     -5.898042    0.001852   -1.207912
H      0.465713   -1.432997    0.805568
H      1.910749   -2.457117    0.758826
H      0.746688    0.693538    1.732558
H      2.114226    2.604187    2.427905
H      4.516201    2.685233    1.915227
H      6.514448    1.668575    0.923028
H      7.586456   -0.184777   -0.290697
H      6.259481   -2.143122   -1.008338
H      3.872084   -2.274101   -0.529843
