62
Lipophilicity 1089 0.8299999833106995
C      8.489085    1.931214    1.935367
O      7.483311    0.979209    1.602709
C      6.578696    1.118703    0.538846
C      6.589125    2.235501   -0.313052
C      5.663889    2.335317   -1.350249
C      4.722922    1.323237   -1.556850
N      3.826303    1.445895   -2.564591
C      2.894925    0.493702   -2.795432
C      2.850540   -0.645153   -1.991480
O      1.966364   -1.514155   -2.227898
N      3.754457   -0.811102   -0.964363
C      3.666068   -2.030565   -0.126015
C      2.871013   -1.760332    1.160022
N      1.496802   -1.319596    0.839878
C      0.579649   -2.467719    0.676122
C     -0.745734   -2.009492    0.037142
C     -1.045559   -0.522269    0.350832
N     -2.450118   -0.140510    0.083393
C     -3.429681   -0.598520    1.082576
C     -4.824986   -0.394059    0.566584
C     -5.465288   -1.397698   -0.177225
C     -6.745894   -1.165801   -0.683501
C     -7.364774    0.066460   -0.464409
O     -8.648329    0.317501   -0.962937
C     -9.199357    1.635693   -1.062203
C     -8.634982    2.557318   -0.016167
O     -9.262136    3.600002    0.310629
N     -7.348578    2.289504    0.549963
C     -6.696393    1.046486    0.279728
N     -5.452189    0.798456    0.771276
C     -0.539215   -0.141399    1.760310
F     -1.159963   -0.916576    2.728302
C      0.989644   -0.370175    1.861177
C      4.694408    0.177541   -0.722283
C      5.637643    0.102318    0.332299
H      8.023506    2.908677    2.182918
H      9.049973    1.570880    2.822250
H      9.198720    2.048630    1.088790
H      7.305505    3.034456   -0.179049
H      5.678197    3.205437   -1.995336
H      2.187671    0.623669   -3.605424
H      3.200661   -2.870673   -0.683563
H      4.676041   -2.418684    0.118334
H      2.863119   -2.676185    1.793802
H      3.412190   -0.978674    1.737764
H      1.028609   -3.246636    0.023371
H      0.376992   -2.939933    1.664722
H     -1.555780   -2.675544    0.395927
H     -0.684995   -2.133586   -1.066292
H     -0.431907    0.076474   -0.361561
H     -2.711523   -0.522250   -0.857345
H     -3.318792    0.000468    2.011551
H     -3.285779   -1.668683    1.340215
H     -4.976088   -2.346125   -0.363623
H     -7.250165   -1.935502   -1.253803
H    -10.303060    1.574656   -0.961800
H     -8.958648    2.049535   -2.063271
H     -6.898544    2.989697    1.181710
H     -0.770046    0.926869    1.965740
H      1.500251    0.606519    1.712408
H      1.239737   -0.723994    2.888033
H      5.662487   -0.728436    1.019752
