45
Lipophilicity 9 1.8300000429153442
C     -5.952254   -1.086525    0.313130
C     -4.777774   -0.370831    0.979652
O     -3.633148   -1.193469    0.937854
C     -2.509057   -0.365850    0.712037
C     -2.967864    1.087791    0.541735
O     -2.685995    1.851748    1.692736
C     -4.451104    0.951375    0.293935
O     -5.171691    2.020502    0.851096
N     -1.798256   -0.820392   -0.485410
C     -2.326661   -1.274442   -1.652588
N     -1.390449   -1.514873   -2.612028
C     -0.241551   -1.178325   -1.995867
C      1.058725   -1.184285   -2.485337
N      1.362224   -1.615099   -3.812019
N      2.050500   -0.753567   -1.650265
C      1.781287   -0.326333   -0.371052
O      2.808338    0.117871    0.468902
C      4.194308    0.092299    0.122405
C      4.918549    1.147751    0.974792
C      6.102807    1.843536    0.318769
C      4.779259    2.576876    0.470616
C      4.781596   -1.299759    0.398896
F      6.137635   -1.306542    0.122849
F      4.166765   -2.244317   -0.402059
F      4.588621   -1.645745    1.725143
N      0.495205   -0.322365    0.093599
C     -0.484889   -0.757008   -0.734701
H     -6.862343   -0.451338    0.352679
H     -5.717020   -1.320448   -0.746909
H     -6.162749   -2.037007    0.847500
H     -5.037381   -0.187945    2.047027
H     -1.829037   -0.456000    1.588336
H     -2.476155    1.576290   -0.328905
H     -3.109795    1.406601    2.473282
H     -4.626882    0.889280   -0.806909
H     -6.090662    1.963588    0.480927
H     -3.386757   -1.416417   -1.815406
H      2.348984   -1.606309   -4.153042
H      0.609100   -1.943951   -4.456350
H      4.315265    0.324201   -0.960588
H      4.956810    1.049796    2.081160
H      6.335568    1.540387   -0.724399
H      6.887892    2.178679    1.028876
H      4.226183    2.710485   -0.483993
H      4.783852    3.350091    1.267692
