40
Lipophilicity 31 1.2100000381469727
C      4.883873    2.787213    1.064953
C      4.524252    1.368967    1.517351
C      4.763346    0.313600    0.481113
N      3.344357   -0.037387    0.286185
C      3.088021    1.000334    1.303810
C      2.602580   -0.980057   -0.489298
O      3.222545   -1.747430   -1.272664
C      1.125121   -1.017154   -0.410931
N      0.474690    0.141497   -0.135033
N     -0.852792    0.223358   -0.109694
C     -1.648092   -0.847780   -0.360315
C     -3.060211   -0.721480   -0.317581
C     -3.846474   -1.869385   -0.519627
C     -3.254477   -3.106691   -0.760531
C     -1.867751   -3.228081   -0.812787
C     -1.043337   -2.100705   -0.628422
C      0.370101   -2.185890   -0.660107
N      1.029682   -3.440935   -0.892318
C     -3.737909    0.581161   -0.062409
N     -3.083372    1.759624   -0.259426
C     -3.694624    2.952776   -0.041819
C     -5.019355    2.986176    0.387679
C     -5.683283    1.776895    0.581094
N     -5.035904    0.604964    0.352515
H      4.468451    3.521685    1.786357
H      5.988161    2.898612    1.041017
H      4.478877    3.009438    0.053483
H      4.907127    1.095981    2.525323
H      5.330377   -0.553751    0.886418
H      5.209012    0.694482   -0.465376
H      2.627095    0.553910    2.212833
H      2.466451    1.823027    0.884044
H     -4.927615   -1.812940   -0.496939
H     -3.876767   -3.980564   -0.906065
H     -1.461014   -4.214068   -0.980922
H      0.639067   -4.153795   -1.545566
H      1.935583   -3.666667   -0.426006
H     -3.151511    3.874174   -0.203859
H     -5.521032    3.928601    0.565039
H     -6.713251    1.768286    0.911709
