56
Lipophilicity 85 3.5
C      6.263097   -1.266063    3.490843
O      6.034769   -2.065050    2.334821
C      5.369582   -1.620355    1.184367
C      4.888021   -0.305486    1.052171
C      4.217933    0.090534   -0.109966
C      4.006725   -0.826253   -1.154239
C      3.312429   -0.478712   -2.334140
O      2.743179    0.787857   -2.518696
C      1.671541    1.298552   -1.768046
C      1.298080    2.629402   -1.969555
C      0.234805    3.183243   -1.257014
C     -0.469695    2.414781   -0.317254
C     -1.633219    3.023315    0.426045
C     -2.926151    2.443198   -0.065962
O     -3.289783    2.666622   -1.253241
N     -3.745020    1.658743    0.815506
C     -4.796543    0.789961    0.370837
C     -5.000624    0.280447   -0.896621
N     -6.046714   -0.565529   -0.830389
C     -6.539300   -1.393876   -1.921093
N     -6.497679   -0.645427    0.413523
C     -5.754307    0.188964    1.166730
C     -5.909493    0.340962    2.644343
C     -0.107169    1.068285   -0.104626
O     -0.828507    0.315079    0.835592
C     -0.596965   -1.057548    1.126993
C      0.958772    0.514512   -0.840457
C      3.194730   -1.417622   -3.362849
C      3.726151   -2.697244   -3.199122
N      4.363916   -3.029378   -2.047195
C      4.517660   -2.139509   -1.030621
C      5.186768   -2.525939    0.134098
H      6.803906   -1.870775    4.247109
H      5.294024   -0.938617    3.924680
H      6.884962   -0.383539    3.229810
H      5.027536    0.420038    1.841405
H      3.875136    1.114870   -0.185980
H      1.834425    3.237582   -2.686553
H     -0.039286    4.214658   -1.440508
H     -1.510053    2.834405    1.514467
H     -1.660370    4.127596    0.293690
H     -3.557235    1.714569    1.841579
H     -4.415686    0.463055   -1.785146
H     -6.436356   -0.854385   -2.886569
H     -7.613256   -1.636800   -1.760945
H     -5.954175   -2.336490   -1.962215
H     -6.886024   -0.071644    2.970583
H     -5.866932    1.414945    2.921360
H     -5.093081   -0.202749    3.161037
H     -0.756136   -1.672226    0.217125
H     -1.314224   -1.385776    1.904421
H      0.435878   -1.199644    1.511826
H      1.231847   -0.520813   -0.697022
H      2.673377   -1.162857   -4.277150
H      3.625694   -3.430273   -3.988335
H      5.569041   -3.535593    0.226228
