25
Lipophilicity 776 0.5600000023841858
C      3.100456    0.966718    0.085911
C      1.785626    0.226965   -0.198148
C      1.780800   -1.139571    0.494464
C      0.847576   -2.076992   -0.198357
O      1.108728   -3.309900   -0.190875
N     -0.310852   -1.614184   -0.903014
C     -1.188651   -0.569156   -0.443291
C     -2.571640   -0.778538   -0.599989
C     -3.498365    0.170099   -0.171615
C     -3.061443    1.352633    0.414657
C     -1.696682    1.594214    0.562709
C     -0.738416    0.656321    0.132003
N      0.650296    1.017247    0.277408
H      3.243365    1.102714    1.179678
H      3.960751    0.395024   -0.323259
H      3.086943    1.964787   -0.401813
H      1.711549    0.107575   -1.302881
H      1.483864   -1.038610    1.561103
H      2.800530   -1.584365    0.467073
H     -0.696035   -2.276295   -1.615051
H     -2.935613   -1.696189   -1.045517
H     -4.558059   -0.014614   -0.292492
H     -3.781207    2.088915    0.748614
H     -1.382370    2.530170    1.007741
H      0.858848    1.925033    0.754943
