48
Lipophilicity 1777 1.2300000190734863
C      2.739106    0.091548    2.799480
O      2.341784   -0.304555    1.490983
C      1.011594   -0.494654    1.079336
C     -0.064208   -0.336657    1.972665
C     -1.374660   -0.580271    1.559007
C     -1.642509   -0.997058    0.246192
C     -0.573347   -1.135342   -0.654182
C      0.749121   -0.875424   -0.254497
C      1.844384   -1.028149   -1.240381
O      1.769935   -1.933963   -2.115395
N      2.969855   -0.138974   -1.229388
C      4.162631   -0.387509   -2.035553
C      5.361726    0.249064   -1.388755
C      5.869697    1.470193   -1.856063
C      6.964063    2.059706   -1.219025
C      7.534575    1.426772   -0.112277
N      7.022411    0.250360    0.338917
C      5.957902   -0.343985   -0.264935
C     -3.031259   -1.257852   -0.203597
O     -3.310855   -1.173657   -1.430999
N     -4.058817   -1.618920    0.733868
C     -5.472422   -1.654520    0.365747
C     -5.992971   -0.257062    0.170090
C     -6.280664    0.232577   -1.112329
C     -6.739386    1.541525   -1.272460
C     -6.901611    2.352193   -0.147371
N     -6.612072    1.866805    1.089057
C     -6.164649    0.595392    1.271152
H      3.845229    0.168669    2.833214
H      2.412601   -0.665298    3.543523
H      2.306148    1.084024    3.045676
H      0.101875   -0.028994    2.995895
H     -2.176506   -0.423122    2.268034
H     -0.770074   -1.441547   -1.675156
H      2.879440    0.779811   -0.737394
H      4.002653    0.015740   -3.059089
H      4.342624   -1.481427   -2.126846
H      5.420800    1.963792   -2.709158
H      7.365302    2.998735   -1.578376
H      8.383328    1.872149    0.390343
H      5.575542   -1.277275    0.130318
H     -3.798663   -1.915216    1.700699
H     -6.052730   -2.144543    1.177755
H     -5.608154   -2.270923   -0.549654
H     -6.148891   -0.395116   -1.984881
H     -6.964860    1.924834   -2.259156
H     -7.255093    3.368663   -0.257120
H     -5.939924    0.249462    2.272083
