26
Lipophilicity 1115 0.30000001192092896
O      4.825320    1.530107    0.213447
C      3.487674    1.500566    0.599668
O      3.084848    2.298760    1.488784
C      2.550914    0.542216   -0.028351
C      3.004384   -0.343330   -1.019844
C      2.124678   -1.251318   -1.611845
C      0.784377   -1.287593   -1.223815
C      0.305713   -0.410975   -0.234876
C      1.198297    0.501499    0.358569
C     -1.120875   -0.447898    0.177288
C     -1.784841   -1.677552    0.343363
C     -3.126832   -1.711037    0.732211
C     -3.822328   -0.521456    0.958698
C     -3.175979    0.709135    0.796510
C     -1.830339    0.746285    0.407389
C     -3.894546    1.935430    1.025388
N     -4.472072    2.921252    1.209363
H      5.474873    2.182159    0.636742
H      4.038909   -0.335653   -1.339249
H      2.482533   -1.927579   -2.377554
H      0.118055   -1.989209   -1.709828
H      0.842263    1.167425    1.135114
H     -1.261547   -2.612940    0.189667
H     -3.627724   -2.661807    0.861561
H     -4.862391   -0.560945    1.259668
H     -1.343367    1.704459    0.267297
