24
Lipophilicity 780 3.200000047683716
N     -0.046101   -0.332886   -1.182189
C      1.231385    0.046843   -0.641918
C      2.400727   -0.520456   -1.171876
C      3.654774   -0.145037   -0.679977
C      3.751539    0.811358    0.334071
C      2.594763    1.399422    0.852143
C      1.338973    1.026366    0.362964
C     -1.273290   -0.349430   -0.432662
C     -1.288162   -0.659492    0.940098
C     -2.497538   -0.697405    1.641130
C     -3.700388   -0.442011    0.977598
C     -3.696500   -0.156237   -0.390124
C     -2.489107   -0.117699   -1.094578
H     -0.085323   -0.616081   -2.187927
H      2.338120   -1.260497   -1.959838
H      4.551671   -0.593964   -1.086837
H      4.722832    1.102428    0.712660
H      2.671417    2.150474    1.627742
H      0.456218    1.513524    0.756131
H     -0.369625   -0.888282    1.464601
H     -2.502751   -0.932612    2.697616
H     -4.635713   -0.473368    1.521332
H     -4.629352    0.033093   -0.905331
H     -2.498570    0.101947   -2.154829
