23
Lipophilicity 1222 2.299999952316284
C     -1.882430   -0.095653   -1.359125
C     -1.217421   -0.050859    0.023407
C     -1.795203   -1.111453    0.970481
C     -1.315560    1.328601    0.628582
O     -2.398445    1.902971    0.919570
N     -0.044199    1.931387    0.843824
C      0.893503    0.973324    0.390959
C      2.280979    1.110388    0.398773
C      3.057677    0.048972   -0.093136
C      2.439095   -1.119630   -0.579538
C      1.039143   -1.235578   -0.577675
C      0.280366   -0.169633   -0.084463
H     -2.973846    0.091916   -1.268266
H     -1.734214   -1.092247   -1.827349
H     -1.446336    0.676893   -2.029345
H     -1.296847   -1.064031    1.963250
H     -2.884621   -0.947160    1.114702
H     -1.645212   -2.128629    0.549463
H      0.152278    2.874033    1.247501
H      2.748250    2.011453    0.774182
H      4.136909    0.129265   -0.098538
H      3.045606   -1.932671   -0.956773
H      0.560530   -2.131658   -0.950485
