30
Lipophilicity 188 2.4800000190734863
N     -3.285454   -2.323045   -0.962620
C     -2.716898   -1.082968   -0.512787
C     -3.598607   -0.040610   -0.176218
C     -3.069484    1.151660    0.291823
N     -3.779979    2.236853    0.662248
N     -2.883266    3.135846    1.043039
C     -1.661903    2.590227    0.900298
O     -0.594560    3.196674    1.179572
N     -1.742589    1.328027    0.425118
C     -0.823444    0.365893    0.106699
C      0.562481    0.574985    0.245392
C      1.480912   -0.425853   -0.105514
C      1.001939   -1.644926   -0.606343
C     -0.367459   -1.871357   -0.748599
C     -1.305159   -0.883596   -0.386920
C      2.934153   -0.173941    0.052609
O      3.429853    0.956582    0.506409
C      4.739393    0.870738    0.529665
C      5.130750   -0.369096    0.072208
C      3.971507   -1.046789   -0.236674
H     -2.740935   -3.205708   -1.050908
H     -4.313513   -2.396154   -1.132922
H     -4.671014   -0.162773   -0.265968
H     -3.109640    4.094307    1.389756
H      0.943409    1.509925    0.622541
H      1.682340   -2.433201   -0.896694
H     -0.663660   -2.823630   -1.157784
H      5.398096    1.662322    0.860742
H      6.143657   -0.736235   -0.024492
H      3.909075   -2.054158   -0.623679
