29
Lipophilicity 965 3.0799999237060547
C      4.367939    0.622004    1.029681
C      3.054933    0.723540    0.311815
C      2.586069    1.966747   -0.133061
C      1.379868    2.035400   -0.832293
N      0.675445    0.902151   -1.088783
C      1.108900   -0.324014   -0.683253
N      0.338924   -1.499797   -0.975786
C     -0.953182   -1.445959   -1.656676
C     -2.005329   -0.887263   -0.737359
C     -2.551916    0.387207   -0.964646
C     -3.514151    0.906011   -0.092588
C     -3.935391    0.158901    1.010899
C     -3.394173   -1.108181    1.245041
C     -2.431304   -1.630492    0.375855
C      2.316674   -0.431990    0.019804
H      5.182172    0.472353    0.290313
H      4.570483    1.547678    1.609501
H      4.360856   -0.232726    1.739220
H      3.147472    2.872629    0.059589
H      1.004670    2.990392   -1.174944
H      0.709613   -2.436252   -0.695504
H     -0.862631   -0.845316   -2.587980
H     -1.251666   -2.472999   -1.959858
H     -2.232393    0.979813   -1.812833
H     -3.932214    1.888192   -0.271516
H     -4.679819    0.562293    1.685097
H     -3.719346   -1.685001    2.101194
H     -2.015415   -2.611504    0.570153
H      2.674914   -1.403816    0.337602
