42
Lipophilicity 2048 1.0499999523162842
C      4.809422    1.705534   -0.532577
C      3.399145    1.832338    0.041939
O      2.454126    1.389450   -0.906121
C      1.416987    0.727170   -0.209053
C      1.754546    0.676868    1.286436
O      0.980643    1.600357    2.018402
C      3.227805    1.014403    1.314152
O      3.587487    1.761232    2.447627
N      1.255853   -0.627871   -0.741208
C      2.221885   -1.486299   -1.162432
N      1.741738   -2.715083   -1.501621
C      0.422176   -2.594073   -1.262035
C     -0.591157   -3.536261   -1.391599
N     -0.333590   -4.858099   -1.865322
N     -1.856492   -3.157743   -1.039178
C     -2.127363   -1.894807   -0.574545
O     -3.439009   -1.573487   -0.204610
C     -3.925883   -0.274306    0.002835
C     -3.449995    0.831901   -0.727786
C     -3.971272    2.107955   -0.491499
C     -4.976334    2.288901    0.462244
C     -5.468202    1.192217    1.174842
C     -4.949135   -0.085045    0.940818
N     -1.114451   -0.982165   -0.440999
C      0.135718   -1.356819   -0.800955
H      5.025542    0.651478   -0.808816
H      4.901264    2.336436   -1.441863
H      5.558187    2.047891    0.213131
H      3.202284    2.907748    0.254632
H      0.471475    1.291035   -0.373204
H      1.585790   -0.336241    1.714534
H      1.120016    2.502672    1.626907
H      3.826013    0.073458    1.257616
H      3.586773    1.127372    3.211574
H      3.272058   -1.230163   -1.209940
H     -1.114087   -5.546467   -1.949028
H      0.630922   -5.154707   -2.134159
H     -2.700651    0.709295   -1.497806
H     -3.602246    2.955402   -1.054725
H     -5.379789    3.276881    0.642742
H     -6.252353    1.331349    1.907792
H     -5.335846   -0.929707    1.496795
