17
Lipophilicity 427 1.5
F     -3.698541   -0.860787   -0.244360
C     -2.425056   -0.404655   -0.149049
C     -1.359317   -1.309991   -0.159188
C     -0.042990   -0.844790   -0.061141
N      0.992000   -1.723728   -0.070983
C      2.276356   -1.293803    0.023011
N      2.548960    0.034126    0.129352
C      1.549255    0.958345    0.144090
O      1.835328    2.182953    0.243852
C      0.211085    0.539090    0.048157
C     -0.866735    1.442928    0.057605
C     -2.179305    0.968712   -0.040880
F     -3.214977    1.844095   -0.031316
H     -1.557469   -2.371532   -0.243182
H      3.083966   -2.014021    0.012912
H      3.544722    0.343540    0.200582
H     -0.697281    2.509517    0.140539
