29
Lipophilicity 1452 0.8999999761581421
C     -5.100728    0.172765    0.390287
C     -4.229710   -0.985605   -0.068383
O     -2.861833   -0.591475   -0.043125
C     -1.818587   -1.446690   -0.413200
O     -2.083088   -2.622842   -0.788604
C     -0.404094   -0.983662   -0.368395
C      0.616929   -1.868677   -0.746750
N      1.913922   -1.481743   -0.718343
C      2.295862   -0.238905   -0.329715
C      3.664080    0.101158   -0.322694
N      4.663970   -0.846129   -0.720367
C      4.054778    1.383268    0.078477
C      3.101346    2.320379    0.469069
C      1.744553    1.993065    0.465444
C      1.315967    0.708261    0.066345
C     -0.052802    0.323746    0.044393
O     -1.075404    1.202782    0.420858
H     -4.826253    0.466821    1.425523
H     -4.960715    1.043126   -0.285277
H     -6.168703   -0.130633    0.372022
H     -4.383494   -1.852191    0.610694
H     -4.518119   -1.275190   -1.102176
H      0.387409   -2.876268   -1.068115
H      5.675638   -0.586377   -0.712380
H      4.412799   -1.812229   -1.026058
H      5.102387    1.657174    0.088409
H      3.415984    3.309309    0.777461
H      1.059630    2.763391    0.778753
H     -0.941722    2.153370    0.730558
