49
Lipophilicity 1956 0.10000000149011612
F      2.067165   -1.562217   -1.136625
C      0.990387   -0.738181   -1.139525
C      0.127133   -0.752830   -2.237873
C     -1.023042    0.038898   -2.240770
C     -1.332844    0.842187   -1.132083
C     -2.576114    1.696382   -1.128529
C     -3.480099    1.343718    0.028266
N     -3.473183    2.167911    1.109700
N     -4.209820    1.931803    2.194295
C     -5.011046    0.838952    2.284325
O     -5.690400    0.650952    3.330832
C     -5.071512   -0.066478    1.212344
C     -5.886705   -1.213348    1.269174
C     -5.930547   -2.100921    0.193547
C     -5.167602   -1.856574   -0.947179
C     -4.354531   -0.723717   -1.021155
C     -4.292272    0.185537    0.055925
C     -0.453943    0.866843   -0.035604
C      0.714535    0.088216   -0.036597
C      1.620701    0.128367    1.130802
O      1.119681    0.067046    2.286977
N      3.051579    0.246073    0.979244
C      3.904260   -0.310416    2.049519
C      5.412533   -0.196110    1.766999
C      5.863184   -1.015447    0.544933
N      4.864518   -1.033346   -0.533290
C      4.557822    0.313149   -1.035929
C      3.611818    1.090374   -0.095422
H      0.345089   -1.387099   -3.087538
H     -1.674790    0.017101   -3.105108
H     -2.266753    2.761159   -1.046733
H     -3.134537    1.616117   -2.085618
H     -4.161636    2.605557    2.991062
H     -6.489980   -1.426584    2.143165
H     -6.559087   -2.980686    0.244191
H     -5.207061   -2.547593   -1.779485
H     -3.785487   -0.572472   -1.925600
H     -0.674305    1.503039    0.813618
H      3.651814   -1.383517    2.196668
H      3.686990    0.222811    3.000344
H      5.968032   -0.560757    2.658264
H      5.701574    0.868293    1.640642
H      6.036396   -2.063562    0.873087
H      6.834838   -0.623024    0.169565
H      5.271224   -1.584762   -1.324937
H      4.058492    0.214162   -2.025392
H      5.491591    0.894514   -1.208522
H      4.152619    1.947054    0.359776
H      2.803321    1.553425   -0.701531
