49
Lipophilicity 2059 1.600000023841858
C      4.472379    2.023082   -1.164561
C      4.001902    1.632706    0.233370
C      2.993070    0.505142    0.169590
C      1.621965    0.801803    0.180342
C      0.914780    2.130057    0.258435
N     -0.499935    1.740994    0.206437
C     -1.581411    2.562305    0.244237
O     -1.424225    3.811268    0.324220
C     -2.873430    1.995148    0.193131
C     -3.027122    0.584047    0.069142
C     -1.862615   -0.219065    0.040207
C     -0.620417    0.401953    0.116809
C      0.688208   -0.199309    0.099361
N      1.020383   -1.505445   -0.003096
C      2.335581   -1.862766   -0.029419
C      2.672310   -3.215123   -0.142667
C      4.010196   -3.606330   -0.188673
C      5.027271   -2.651737   -0.126273
O      6.356516   -3.065940   -0.181403
C      4.709041   -1.291135   -0.010633
C      3.363328   -0.869223    0.046578
C     -4.450268    0.002264   -0.102965
O     -4.891936    0.209440   -1.425331
C     -4.554296   -1.520328    0.262607
C     -4.253487   -2.477328   -0.900346
C     -5.375650    0.821967    0.786633
O     -6.396913    0.315632    1.324211
O     -5.137374    2.187669    0.958553
C     -4.106221    2.859448    0.243039
H      5.207324    2.852058   -1.091371
H      4.958341    1.162044   -1.669632
H      3.610985    2.364771   -1.777271
H      4.869030    1.353888    0.866526
H      3.557512    2.527107    0.719141
H      1.139409    2.640458    1.219251
H      1.175682    2.766685   -0.613811
H     -1.894733   -1.293710   -0.025715
H      1.894888   -3.967292   -0.198891
H      4.258528   -4.656342   -0.277840
H      7.121416   -2.402561   -0.139431
H      5.523804   -0.583052    0.024617
H     -4.155364   -0.033061   -2.045774
H     -5.581975   -1.782982    0.590962
H     -3.893983   -1.753605    1.125709
H     -3.312352   -2.223863   -1.425794
H     -5.082411   -2.447484   -1.639279
H     -4.173349   -3.515300   -0.514050
H     -3.905391    3.829110    0.744866
H     -4.448992    3.061935   -0.793902
