82
Lipophilicity 311 3.359999895095825
C     -1.365784   -0.080084    2.315639
C     -1.947209   -0.910632    1.188450
C     -1.356891   -0.928478   -0.025422
C     -1.941569   -1.713272   -1.129604
O     -1.373390   -1.711807   -2.257161
C     -3.191134   -2.481179   -0.930589
C     -3.718303   -3.212413   -2.001370
C     -4.915910   -3.904920   -1.871854
O     -5.423312   -4.623518   -2.953314
C     -5.614548   -3.877432   -0.661158
O     -6.833326   -4.555092   -0.554407
C     -5.101576   -3.169566    0.452997
C     -5.970627   -3.148108    1.708099
C     -7.058347   -2.059343    1.646982
C     -6.481140   -0.667586    1.612785
C     -6.137385   -0.075133    0.386182
C     -5.513744    1.175641    0.358784
C     -5.225741    1.850698    1.555659
C     -4.576295    3.200772    1.519855
C     -5.607535    1.280195    2.779682
C     -6.224606    0.025597    2.808806
C     -3.858149   -2.456508    0.318910
C     -3.213102   -1.658698    1.418076
O     -3.731034   -1.593622    2.565967
C     -0.117785   -0.149958   -0.290495
C      1.096758   -0.739893   -0.262763
C      1.222130   -2.217688    0.040721
C      2.323470    0.059966   -0.527200
O      3.442072   -0.498793   -0.373965
C      2.232692    1.505168   -0.920012
C      3.361026    2.299512   -1.307404
C      4.757214    1.726868   -1.479254
C      5.542531    1.778229   -0.160277
C      6.886430    1.121740   -0.319556
C      8.000231    1.873026   -0.728564
C      9.233262    1.247784   -0.935512
C      9.369278   -0.134870   -0.734598
C     10.676411   -0.812917   -1.012228
C      8.252490   -0.889343   -0.346603
C      7.020005   -0.265786   -0.137391
C      3.185827    3.683113   -1.545392
O      4.290934    4.481585   -1.852968
C      1.912676    4.259641   -1.480071
O      1.747483    5.622037   -1.734168
C      0.806806    3.472963   -1.174282
C      0.952421    2.107391   -0.890750
C     -0.245216    1.294274   -0.577657
O     -1.388011    1.829508   -0.565217
H     -0.266791   -0.221900    2.383218
H     -1.780903   -0.365087    3.305567
H     -1.591941    0.991918    2.139233
H     -3.204548   -3.239316   -2.955189
H     -4.935039   -4.669211   -3.841019
H     -7.241062   -5.068194   -1.325177
H     -6.484939   -4.127454    1.811306
H     -5.401066   -3.094305    2.650519
H     -7.719356   -2.169379    2.534959
H     -7.702142   -2.221481    0.754378
H     -6.328044   -0.592999   -0.548360
H     -5.244250    1.612378   -0.594357
H     -3.852806    3.260081    0.682088
H     -5.354280    3.975148    1.376758
H     -4.032090    3.404844    2.469290
H     -5.414796    1.798825    3.713611
H     -6.487145   -0.413509    3.763094
H      0.780535   -2.808524   -0.786576
H      0.700861   -2.461468    0.990348
H      2.273701   -2.537804    0.165784
H      5.317618    2.303369   -2.249316
H      4.721646    0.700824   -1.900945
H      4.976582    1.274840    0.651436
H      5.679270    2.836285    0.150778
H      7.915437    2.940042   -0.893771
H     10.081159    1.839829   -1.257744
H     10.722740   -1.094303   -2.083072
H     11.528362   -0.138143   -0.777683
H     10.784235   -1.729080   -0.394509
H      8.332584   -1.961736   -0.214991
H      6.165390   -0.864603    0.152519
H      4.210996    5.475150   -2.034614
H      0.839893    6.065310   -1.687697
H     -0.170285    3.940583   -1.148575
