34
Lipophilicity 1189 0.5099999904632568
N      5.672165    1.489922   -0.760655
C      4.617924    1.045159    0.089585
N      4.862142    0.794668    1.402160
C      3.870234    0.370180    2.225700
C      2.580162    0.185688    1.728879
C      2.337043    0.448019    0.371707
N      3.366823    0.871014   -0.412178
C      0.996260    0.276157   -0.232741
C      0.703743    0.497833   -1.573666
C     -0.641852    0.235258   -1.696655
C     -1.521425    0.325778   -2.855818
O     -1.115425    0.780396   -3.957875
N     -2.880234   -0.094886   -2.686440
C     -3.267426   -0.890707   -1.511535
C     -2.594512   -0.368527   -0.209296
C     -2.849349   -1.346208    0.964342
C     -3.035643   -0.615457    2.296207
F     -3.160153   -1.537777    3.318932
C     -1.116691   -0.136561   -0.467507
N     -0.119749   -0.099605    0.438955
H      5.490485    1.683997   -1.770396
H      6.635545    1.625681   -0.381591
H      4.083656    0.174777    3.268149
H      1.803422   -0.155631    2.397607
H      1.380900    0.819122   -2.354516
H     -3.579418    0.087349   -3.440919
H     -4.373197   -0.866549   -1.399803
H     -2.962888   -1.945885   -1.687033
H     -3.054109    0.618976    0.018745
H     -3.777355   -1.932115    0.782238
H     -2.018062   -2.080228    1.048983
H     -2.175319    0.047893    2.515134
H     -3.957090    0.003978    2.260626
H     -0.200605   -0.311707    1.455209
