48
Lipophilicity 1988 2.1600000858306885
C      5.496304    2.945609    0.133594
O      4.244534    2.322152    0.401694
C      3.967599    0.966259    0.169580
C      4.924807    0.084528   -0.360552
C      4.599715   -1.252105   -0.587713
C      3.322034   -1.730490   -0.284395
N      3.023139   -3.030259   -0.539236
C      1.796994   -3.546400   -0.283397
C      0.799584   -2.745621    0.266864
C      1.059904   -1.397313    0.581153
C     -0.057821   -0.545078    1.183423
O     -0.963787   -1.347621    1.899812
C     -0.788025    0.261023    0.072378
C     -1.752579   -0.590381   -0.807963
C     -3.085486    0.169701   -0.971610
C     -2.771304    1.574057   -1.530982
C     -1.868646    2.337977   -0.525059
N     -1.485665    1.464510    0.614232
C     -2.722655    1.092131    1.350103
C     -3.735629    0.351061    0.423647
C     -4.199157   -0.965819    1.012117
C     -5.221644   -1.643911    0.482337
C      2.344503   -0.865752    0.271155
C      2.688146    0.489157    0.479279
H      5.736061    2.871112   -0.948158
H      6.297404    2.468717    0.736939
H      5.433821    4.017887    0.410463
H      5.921152    0.424215   -0.608144
H      5.344441   -1.917297   -1.007704
H      1.594311   -4.584612   -0.510153
H     -0.171753   -3.186495    0.449840
H      0.380045    0.179785    1.904692
H     -0.498507   -1.643343    2.726041
H      0.015831    0.629166   -0.607411
H     -1.944960   -1.593389   -0.373535
H     -1.297299   -0.762489   -1.808255
H     -3.761905   -0.373247   -1.667175
H     -2.255828    1.482405   -2.512247
H     -3.715886    2.136301   -1.699037
H     -2.400857    3.240015   -0.149098
H     -0.956237    2.710920   -1.040659
H     -3.202780    2.014649    1.746316
H     -2.465109    0.511720    2.257977
H     -4.636799    0.996793    0.312414
H     -3.717347   -1.371664    1.896405
H     -5.747678   -1.271231   -0.391225
H     -5.541055   -2.580471    0.927663
H      1.976070    1.203137    0.865216
