32
Lipophilicity 501 1.0
O      0.308124   -1.451145    1.358661
C      0.527166   -0.331144    0.538573
C     -0.217164   -0.514002   -0.808225
N     -1.666804   -0.214323   -0.765121
C     -2.404404   -0.911071    0.300931
C     -3.921882   -0.705131    0.102053
O     -4.221394    0.333446   -0.817490
C     -3.460604    1.485275   -0.513049
C     -1.966095    1.231919   -0.786113
C      2.011401   -0.167590    0.288039
C      2.801215   -1.271852   -0.081773
C      4.165515   -1.108982   -0.340818
C      4.751058    0.155768   -0.243027
C      3.972403    1.260924    0.109841
C      2.607520    1.103245    0.369930
H      0.594390   -1.196854    2.275072
H      0.142850    0.575305    1.056302
H      0.256019    0.126724   -1.586790
H     -0.080621   -1.560528   -1.158615
H     -2.173256   -1.998984    0.281050
H     -2.118825   -0.505457    1.297029
H     -4.361583   -1.645514   -0.293021
H     -4.415353   -0.502316    1.078581
H     -3.813930    2.326038   -1.146937
H     -3.616563    1.792400    0.547258
H     -1.713007    1.631818   -1.792164
H     -1.364161    1.788447   -0.037478
H      2.359893   -2.256695   -0.171306
H      4.768254   -1.963219   -0.620934
H      5.807043    0.280234   -0.445170
H      4.425911    2.241280    0.178641
H      2.016885    1.971985    0.633008
