46
Lipophilicity 226 2.4100000858306885
C     -8.305600   -0.493696    1.792392
C     -7.657852    0.589449    0.944706
O     -6.346119    0.181179    0.569926
C     -5.498697    0.978111   -0.207625
O     -5.890656    2.107127   -0.614382
C     -4.143968    0.493515   -0.552419
C     -3.264761    1.291531   -1.306236
C     -1.983814    0.830014   -1.624494
C     -1.557620   -0.436927   -1.188730
O     -0.287267   -0.945951   -1.494456
C      0.873235   -0.178592   -1.659806
O      0.921939    1.018109   -1.266067
C      2.092437   -0.813311   -2.257268
C      2.588873   -2.002435   -1.421923
C      3.066567   -1.622306   -0.007628
C      4.381390   -0.812341    0.003980
C      4.151156    0.669248    0.335736
N      5.421455    1.392846    0.376025
C      6.294868    1.378751    1.343186
N      7.495182    2.138308    1.199871
N      6.081399    0.631041    2.548380
C     -2.439663   -1.240043   -0.458585
C     -3.718764   -0.778928   -0.134559
H     -9.330088   -0.179519    2.083461
H     -8.368796   -1.440698    1.215234
H     -7.705627   -0.666146    2.710983
H     -8.273259    0.758606    0.033779
H     -7.604912    1.532801    1.530945
H     -3.568148    2.270793   -1.655598
H     -1.343120    1.451553   -2.234847
H      2.903105   -0.065314   -2.385068
H      1.826810   -1.180630   -3.271521
H      1.767553   -2.746652   -1.331087
H      3.416352   -2.506639   -1.966512
H      2.257476   -1.096023    0.544317
H      3.243652   -2.572410    0.542962
H      5.057537   -1.250653    0.768565
H      4.910110   -0.894221   -0.970897
H      3.524648    1.126007   -0.456018
H      3.603286    0.791263    1.295091
H      7.675796    2.689988    0.331491
H      8.207197    2.153180    1.963427
H      6.818882    0.619610    3.286958
H      5.208333    0.091179    2.731813
H     -2.127041   -2.223448   -0.129788
H     -4.373465   -1.420774    0.442281
