36
Lipophilicity 1016 1.7000000476837158
C     -3.554428    2.402958   -0.010154
C     -3.021143    1.011594   -0.097860
N     -1.973066    0.687362   -0.774482
C     -1.778763   -0.763363   -0.638492
C     -1.865774   -1.430982   -2.013549
N     -2.895874   -1.209606    0.205030
C     -3.591597   -0.167736    0.502653
N     -4.765834   -0.214904    1.310862
C     -0.441169   -1.074156    0.017989
C     -0.280128   -2.232572    0.800556
C      0.959615   -2.542737    1.361245
C      2.060917   -1.716635    1.134262
C      1.937127   -0.570813    0.330434
C      0.684477   -0.264715   -0.232870
C      3.112172    0.301010    0.073980
C      2.980779    1.700371    0.054806
C      4.093919    2.507004   -0.186884
C      5.335207    1.910957   -0.409843
N      5.452904    0.557482   -0.391015
C      4.385160   -0.251240   -0.155913
H     -4.541202    2.454172   -0.515415
H     -3.672074    2.690623    1.055303
H     -2.858426    3.116340   -0.500197
H     -2.842996   -1.201837   -2.490215
H     -1.771020   -2.533584   -1.913376
H     -1.053991   -1.058826   -2.674832
H     -5.302200    0.655651    1.520322
H     -5.100714   -1.124057    1.699897
H     -1.112476   -2.902069    0.976197
H      1.067946   -3.429324    1.972716
H      3.007725   -1.969895    1.594374
H      0.590798    0.593399   -0.886660
H      2.023610    2.169889    0.244012
H      3.995855    3.584845   -0.197597
H      6.206099    2.524383   -0.598329
H      4.528566   -1.323745   -0.166954
