46
Lipophilicity 914 1.659999966621399
C     -1.777159    2.625811   -0.363037
C     -2.898240    1.576364   -0.417782
O     -2.514407    0.523333   -1.283749
C     -2.897434   -0.677896   -0.654766
C     -2.796722   -0.449833    0.849131
O     -3.585498   -1.342409    1.608331
C     -3.207460    1.002894    0.985375
O     -4.584891    1.128167    1.253117
N     -2.034902   -1.780069   -1.083501
C     -2.420354   -3.046285   -1.389022
N     -1.382754   -3.861674   -1.728162
C     -0.316660   -3.047726   -1.609461
C      1.027990   -3.318376   -1.830596
N      1.477800   -4.607578   -2.249432
N      1.918864   -2.302056   -1.633747
C      1.510520   -1.057239   -1.225113
O      2.470008   -0.060405   -1.025050
C      2.173941    1.213686   -0.448403
C      2.003444    1.085393    1.071217
C      3.262861    1.636817    1.728024
C      4.588330    1.009473    1.307399
C      4.096956    2.297237    0.653713
C      3.354257    2.161912   -0.668902
N      0.179771   -0.803154   -1.013912
C     -0.701447   -1.812186   -1.217720
H     -1.543221    2.986811   -1.392361
H     -0.857651    2.183345    0.086751
H     -2.096786    3.496507    0.253594
H     -3.804851    2.069336   -0.850937
H     -3.950287   -0.902234   -0.947697
H     -1.734825   -0.547277    1.171777
H     -4.501880   -1.367670    1.221485
H     -2.609862    1.501605    1.791058
H     -4.700432    1.010222    2.234011
H     -3.447953   -3.381171   -1.366777
H      0.798574   -5.385324   -2.413558
H      2.496049   -4.787559   -2.402019
H      1.261567    1.638360   -0.924909
H      1.138064    1.694911    1.410844
H      1.834922    0.032589    1.387495
H      3.228778    2.191163    2.691161
H      4.524065    0.096244    0.676636
H      5.414320    1.168138    2.034099
H      4.591133    3.245861    0.957769
H      2.974690    3.164257   -0.964601
H      4.038768    1.797684   -1.464306
