29
Lipophilicity 916 3.0999999046325684
O     -5.995034    0.619949   -0.717843
C     -4.637424    0.459965   -0.449824
C     -4.235079   -0.334222    0.627076
C     -2.876217   -0.503711    0.909758
C     -1.897014    0.128268    0.117768
C     -2.313102    0.916511   -0.971568
C     -3.672818    1.084049   -1.249925
C     -0.447488   -0.044163    0.393672
C      0.034866   -0.277717    1.695136
C      1.406224   -0.429769    1.910307
C      2.295659   -0.343466    0.833909
C      3.678862   -0.490344    1.016520
C      4.545253   -0.394179   -0.078940
O      5.916655   -0.542348    0.115708
C      4.028669   -0.149901   -1.360107
C      2.650921   -0.002044   -1.548108
C      1.781087   -0.098011   -0.456690
N      0.441033    0.044744   -0.636584
H     -6.318503    1.188485   -1.491815
H     -4.976905   -0.826983    1.242771
H     -2.598209   -1.148680    1.732461
H     -1.586765    1.414575   -1.601872
H     -3.975148    1.699521   -2.087684
H     -0.633517   -0.318816    2.544644
H      1.770204   -0.607119    2.915326
H      4.086040   -0.678235    2.003101
H      6.570911   -0.478347   -0.655483
H      4.694465   -0.074431   -2.210372
H      2.262375    0.186421   -2.541342
