48
Lipophilicity 1451 3.119999885559082
C      1.703775   -2.108694   -3.036360
C      2.628654   -1.966946   -1.832989
O      2.275324   -0.821634   -1.061235
C      1.160636   -0.778045   -0.216815
O      0.443054   -1.801517   -0.043594
C      0.842662    0.495143    0.516114
C      1.111126    0.340758    2.025444
C      2.572623    0.098079    2.309309
C      3.056773   -1.209830    2.477779
C      4.418267   -1.434167    2.702232
C      5.310316   -0.354497    2.753954
O      6.669017   -0.565792    2.976729
C      4.833572    0.948619    2.578054
C      3.472443    1.175410    2.352697
N     -0.556204    0.864966    0.279570
C     -1.017529    1.321013   -1.001740
O     -0.194013    1.523881   -1.935281
C     -2.449249    1.618998   -1.221536
C     -2.786105    2.882950   -1.732471
C     -4.119991    3.251808   -1.903182
C     -5.142487    2.364466   -1.573752
C     -4.838578    1.085166   -1.088364
C     -5.874045    0.187406   -0.783528
C     -5.579410   -1.099903   -0.333307
C     -4.252811   -1.506442   -0.194287
C     -3.210366   -0.624771   -0.489879
C     -3.482605    0.692221   -0.919039
H      0.657861   -2.276390   -2.704285
H      2.025055   -2.973620   -3.654115
H      1.745271   -1.187997   -3.656030
H      2.590490   -2.883859   -1.205318
H      3.670406   -1.840972   -2.195842
H      1.493671    1.311549    0.130722
H      0.494557   -0.487970    2.439436
H      0.791669    1.268937    2.548597
H      2.381418   -2.055006    2.429688
H      4.779203   -2.446559    2.831773
H      7.045433   -1.497583    3.106705
H      5.519095    1.785869    2.612208
H      3.119655    2.189211    2.208677
H     -1.241790    0.821933    1.068359
H     -2.010454    3.598968   -1.977063
H     -4.362390    4.235039   -2.285601
H     -6.172052    2.674106   -1.709754
H     -6.911074    0.478996   -0.901309
H     -6.382038   -1.788788   -0.103421
H     -4.030230   -2.512446    0.137695
H     -2.198608   -0.992065   -0.398367
