79
Lipophilicity 1906 2.200000047683716
C     -2.214651   -2.363965   -2.737803
C     -2.027763   -2.752574   -1.267023
C     -2.876105   -3.988927   -0.911879
N     -2.221876   -1.552857   -0.384477
C     -1.056371   -1.331805    0.504624
C      0.080803   -0.648864   -0.271861
C      1.329483   -0.476788    0.598984
N      2.419000    0.128448   -0.166080
C      3.723503    0.306371    0.400212
O      3.931852    0.009976    1.609056
N      4.779545    0.853733   -0.404948
C      6.174283    0.783031   -0.059803
C      7.040732    1.794967   -0.485837
C      8.402580    1.739839   -0.180657
C      8.944016    0.664987    0.558625
C      8.063207   -0.369137    0.951710
C      6.701557   -0.312319    0.639926
C     10.450358    0.647479    0.889833
C     10.868820   -0.574680    1.743434
C     11.262762    0.608087   -0.421822
C     10.819880    1.919918    1.684060
C     -3.513559   -1.445477    0.348881
C     -4.644535   -0.935487   -0.560142
O     -5.867124   -0.999421    0.138253
C     -6.651267    0.052379   -0.364024
C     -5.716155    1.214329   -0.640147
O     -6.216400    2.019166   -1.675747
C     -4.417050    0.520693   -1.010083
O     -4.191269    0.575621   -2.396538
N     -7.686422    0.428253    0.601498
C     -7.615365    0.414548    1.958302
N     -8.724084    0.927519    2.561994
C     -9.496359    1.278756    1.516573
C    -10.741646    1.896951    1.505055
N    -11.432052    2.222871    2.712046
N    -11.290041    2.192460    0.288165
C    -10.637440    1.893657   -0.881574
N     -9.411717    1.288900   -0.857454
C     -8.875583    0.990224    0.350810
H     -1.824256   -3.171988   -3.393062
H     -3.280493   -2.209183   -2.990371
H     -1.651072   -1.433641   -2.960958
H     -0.974185   -3.109500   -1.201627
H     -2.684455   -4.297564    0.138267
H     -2.588882   -4.840359   -1.563789
H     -3.960331   -3.801721   -1.060798
H     -0.711885   -2.294737    0.946118
H     -1.308046   -0.662020    1.356721
H      0.352642   -1.249065   -1.165629
H     -0.265632    0.349640   -0.618416
H      1.092053    0.171482    1.469893
H      1.656081   -1.472194    0.970787
H      2.266984    0.406969   -1.162149
H      4.510647    1.382357   -1.265829
H      6.656599    2.635166   -1.050272
H      9.033426    2.545358   -0.528469
H      8.406251   -1.235018    1.497836
H      6.067111   -1.139466    0.928877
H     11.954383   -0.538391    1.979471
H     10.316402   -0.593339    2.708505
H     10.684164   -1.524466    1.195704
H     11.084984    1.512828   -1.039325
H     12.352354    0.557832   -0.207375
H     10.983917   -0.283944   -1.023126
H     10.196161    1.997733    2.599779
H     11.888280    1.898649    1.988809
H     10.667993    2.837388    1.080199
H     -3.798132   -2.402509    0.830414
H     -3.442924   -0.721345    1.191129
H     -4.740720   -1.600016   -1.442221
H     -7.134451   -0.288971   -1.310739
H     -5.573936    1.816118    0.289409
H     -5.657715    2.840073   -1.685384
H     -3.577841    1.012415   -0.461158
H     -3.221538    0.413833   -2.529519
H     -6.757423    0.052249    2.508898
H    -11.039801    1.960238    3.643659
H    -12.350324    2.717156    2.673131
H    -11.093940    2.141094   -1.830460
