51
Lipophilicity 804 3.5
C      3.964953    2.961387    0.830781
C      4.055461    2.179005   -0.484323
C      3.620044    3.008304   -1.697748
N      3.324908    0.893974   -0.407662
C      3.863225   -0.351490   -0.517830
C      5.209712   -0.694376   -0.726609
C      5.547375   -2.050450   -0.838793
C      4.554851   -3.041720   -0.756275
C      3.213091   -2.691179   -0.548742
C      2.892288   -1.333841   -0.413253
C      1.684408   -0.677129   -0.212394
C      0.365080   -1.143692   -0.011441
C      0.065306   -2.613455    0.132521
C     -0.666936   -0.170082    0.092991
N     -2.048663   -0.564413    0.163725
C     -2.985806    0.035425    1.075778
O     -2.556481    0.730988    2.036966
N     -4.406533   -0.174648    0.926449
C     -5.270420   -0.110555    2.113259
C     -6.713825    0.212402    1.714912
O     -7.156384   -0.647874    0.684371
C     -6.415580   -0.393499   -0.491362
C     -4.944394   -0.773862   -0.302395
C     -0.343685    1.204706    0.058256
C      0.978582    1.635463   -0.084922
C      1.988953    0.678727   -0.228831
H      4.651325    3.835026    0.796352
H      4.274151    2.309565    1.675561
H      2.944368    3.338241    1.029021
H      5.135077    1.988665   -0.634335
H      3.635149    2.376176   -2.610422
H      4.327355    3.852478   -1.848855
H      2.606596    3.435373   -1.576734
H      5.994801    0.041746   -0.806070
H      6.578894   -2.335879   -0.999837
H      4.827697   -4.083172   -0.859494
H      2.471944   -3.471632   -0.521775
H      0.762451   -3.068694    0.864419
H     -0.948650   -2.805938    0.537317
H      0.152557   -3.112719   -0.855062
H     -2.365860   -1.350702   -0.444537
H     -4.920109    0.674719    2.817512
H     -5.240818   -1.091554    2.635583
H     -6.806532    1.282096    1.416661
H     -7.367543    0.066649    2.600453
H     -6.836507   -1.010735   -1.313599
H     -6.506108    0.672152   -0.803579
H     -4.380744   -0.412021   -1.188908
H     -4.852706   -1.879890   -0.240369
H     -1.128154    1.948750    0.119816
H      1.171832    2.693185   -0.101900
