69
Lipophilicity 1447 2.380000114440918
C      4.921218   -2.078662   -2.358578
C      4.623584   -2.320924   -0.869292
C      5.694701   -3.254860   -0.280850
C      4.545679   -0.977577   -0.092199
N      3.535091   -0.099234   -0.689808
C      3.654011    1.331217   -0.688275
O      4.700322    1.882456   -0.250774
C      2.560404    2.188324   -1.258507
N      1.230787    1.766025   -0.760569
C      0.359984    1.113129   -1.606161
O      0.681805    0.890160   -2.806329
C     -0.894630    0.669233   -1.149952
C     -1.252314    0.911510    0.179553
C     -0.366797    1.556818    1.031562
C      0.874580    1.990113    0.554031
C      1.771193    2.680906    1.506026
C      1.955496    4.070221    1.427856
C      2.809521    4.716465    2.326968
C      3.472938    3.981625    3.314856
C      3.275264    2.600747    3.411569
C      2.422863    1.951007    2.513341
N     -1.814341    0.044873   -2.065325
C     -2.743434   -0.985898   -1.708053
O     -2.673959   -1.552080   -0.583384
O     -3.708078   -1.382241   -2.640583
C     -4.748945   -2.310924   -2.343367
C     -5.752402   -1.695434   -1.404811
C     -6.367476   -0.479371   -1.735002
C     -7.303885    0.082527   -0.857714
C     -7.950092    1.391896   -1.179524
N     -7.597719   -0.548727    0.311210
C     -7.015061   -1.727941    0.661006
C     -7.407772   -2.398903    1.939430
C     -6.089729   -2.329925   -0.201450
C      4.196420   -1.192890    1.363709
O      3.136527   -1.726185    1.658430
C      5.145279   -0.766349    2.451269
F      4.572851   -0.962117    3.696751
F      6.310162   -1.506459    2.370720
F      5.450793    0.574199    2.305533
H      5.888582   -1.545816   -2.483095
H      4.115206   -1.475248   -2.828683
H      4.971572   -3.047178   -2.902301
H      3.639461   -2.838741   -0.799995
H      5.426185   -3.549292    0.754814
H      6.687285   -2.756140   -0.270160
H      5.771742   -4.185052   -0.881373
H      5.545151   -0.490840   -0.160866
H      2.630832   -0.523783   -0.999984
H      2.629378    2.140683   -2.364857
H      2.739937    3.254151   -1.007881
H     -2.227909    0.633297    0.555004
H     -0.656429    1.739795    2.059800
H      1.441380    4.648817    0.669026
H      2.958641    5.786295    2.257395
H      4.137163    4.482541    4.007252
H      3.786014    2.034222    4.180184
H      2.277873    0.881045    2.593501
H     -1.782160    0.323441   -3.071058
H     -4.311059   -3.243004   -1.924182
H     -5.265483   -2.580422   -3.288541
H     -6.114990    0.025743   -2.661865
H     -8.366359    1.366217   -2.209065
H     -7.197084    2.204532   -1.107758
H     -8.775883    1.604864   -0.468544
H     -7.906305   -1.675477    2.619688
H     -6.509326   -2.803849    2.453572
H     -8.111308   -3.229979    1.720849
H     -5.636948   -3.277569    0.065806
