33
Lipophilicity 1383 2.799999952316284
N     -5.497592   -1.306786    0.436249
C     -4.574475   -0.280863    0.070927
C     -5.003438    0.832598   -0.662189
C     -4.078963    1.817920   -1.012810
C     -2.743360    1.687281   -0.628827
C     -2.348622    0.566199    0.115355
C     -0.914261    0.376710    0.513588
C     -0.135868   -0.328587   -0.600232
C      1.300931   -0.522819   -0.198828
C      1.692075   -1.691541    0.504496
C      3.025755   -1.869030    0.914743
C      3.937070   -0.860038    0.616269
C      5.282993   -0.755724    0.891632
C      5.667732    0.472070    0.362035
N      4.615185    1.098560   -0.212320
C      3.565996    0.275844   -0.051187
C      2.253912    0.484057   -0.472012
N     -3.267214   -0.387198    0.434788
H     -5.173040   -2.135950    0.981586
H     -6.504500   -1.244709    0.165795
H     -6.039361    0.932647   -0.960706
H     -4.396616    2.680366   -1.584419
H     -2.024847    2.447700   -0.908789
H     -0.450803    1.364147    0.732537
H     -0.869378   -0.231362    1.443865
H     -0.602424   -1.314991   -0.817384
H     -0.186343    0.274457   -1.533852
H      0.963150   -2.458653    0.734324
H      3.330697   -2.759514    1.449264
H      5.907318   -1.471592    1.409739
H      6.667817    0.883402    0.398286
H      4.621412    2.030945   -0.682555
H      1.979061    1.394452   -0.990232
