43
Lipophilicity 532 2.549999952316284
C     -1.841947   -3.603195   -3.045029
O     -0.537013   -3.386665   -2.529216
C     -0.165076   -2.347445   -1.664116
C      1.084993   -2.160841   -1.275274
C      1.104765   -0.973487   -0.418771
N     -0.073570   -0.459115   -0.280275
C     -0.959438   -1.272345   -1.044132
C     -2.286521   -1.088508   -1.067067
C     -2.950290    0.032821   -0.375113
N     -4.061940   -0.129998    0.367211
C     -4.417929    1.089519    0.813570
C     -5.644070    1.354439    1.624067
C     -3.558048    2.055198    0.327188
C     -2.625585    1.384581   -0.441951
C     -1.531273    2.036966   -1.228744
C      2.300069   -0.401114    0.218979
C      3.593832   -0.910687    0.115621
C      4.372011   -0.055769    0.865268
C      5.741119   -0.067656    1.123815
C      6.263245    0.953795    1.938811
C      5.413871    1.950795    2.469193
C      4.034831    1.935166    2.189332
C      3.546988    0.910660    1.379200
N      2.276592    0.711641    0.991796
H     -1.800574   -4.426093   -3.787573
H     -2.527311   -3.913871   -2.229507
H     -2.209727   -2.690496   -3.559420
H      1.930160   -2.772595   -1.561932
H     -2.936063   -1.815227   -1.520199
H     -4.556263   -1.030450    0.557865
H     -5.870364    0.478264    2.267142
H     -6.502217    1.540873    0.945617
H     -5.489757    2.242780    2.272190
H     -3.624311    3.124115    0.484246
H     -1.252776    1.413138   -2.103390
H     -0.643826    2.187667   -0.579893
H     -1.872465    3.025334   -1.602227
H      3.922329   -1.784471   -0.431555
H      6.383041   -0.835937    0.712317
H      7.322258    0.975735    2.160545
H      5.826326    2.731695    3.094682
H      3.375802    2.694237    2.590485
H      1.446122    1.296546    1.236246
