24
Lipophilicity 578 1.6799999475479126
C     -4.651797    0.254400    0.975838
O     -3.768015    0.121911   -0.132680
C     -2.368634    0.133368   -0.035381
C     -1.697947    0.283500    1.192947
C     -0.300566    0.287474    1.236865
C      0.450359    0.127532    0.063063
N      1.886876    0.156970    0.132951
C      2.744091   -0.555376   -0.776063
O      2.301333   -1.551368   -1.408939
C      4.162105   -0.187170   -0.949420
C      4.675080    0.965560   -0.522379
C     -0.221808   -0.002645   -1.165022
C     -1.619020   -0.005668   -1.208633
H     -4.489153   -0.575847    1.695199
H     -4.491258    1.232091    1.477413
H     -5.698746    0.209426    0.612201
H     -2.245957    0.399698    2.117958
H      0.199191    0.406235    2.190172
H      2.324071    0.625215    0.958223
H      4.809666   -0.873321   -1.481870
H      5.721531    1.182862   -0.692852
H      4.072490    1.713258   -0.025246
H      0.329029   -0.079381   -2.092956
H     -2.122920   -0.108838   -2.161388
