52
Lipophilicity 654 1.2999999523162842
C     -4.286670    3.922332    1.403430
O     -3.461240    2.814243    1.058281
C     -3.943660    1.535051    0.738673
C     -5.316613    1.227568    0.736900
C     -5.748969   -0.064428    0.431794
C     -4.822700   -1.059978    0.107106
N     -5.258951   -2.320927   -0.151442
C     -4.403623   -3.332793   -0.450786
C     -4.940332   -4.699619   -0.736693
C     -3.030833   -3.081033   -0.535334
C     -2.534782   -1.790024   -0.300595
C     -3.438945   -0.760196    0.062206
C     -3.014828    0.538258    0.413619
N     -1.126340   -1.555321   -0.469019
C     -0.545388   -0.592566   -1.207952
C      0.808561   -0.846194   -1.172164
C      1.880410   -0.066777   -1.889170
N      2.973369    0.403352   -1.007603
C      2.512353    1.315857    0.060829
C      3.601074    1.586517    1.130266
N      4.950005    1.183304    0.691685
C      5.142321   -0.080741   -0.042358
C      3.810066   -0.681300   -0.477514
C      6.105698    1.899883    1.186671
O      5.962797    2.819740    2.036445
C      7.489998    1.576472    0.706798
N      1.011610   -1.971347   -0.455941
N     -0.179845   -2.381231   -0.044544
H     -3.644473    4.809808    1.594569
H     -4.862504    3.693687    2.326010
H     -4.980200    4.159859    0.566505
H     -6.057242    1.976397    0.983787
H     -6.808246   -0.291860    0.454339
H     -4.358516   -5.462263   -0.174721
H     -6.004896   -4.771020   -0.429509
H     -4.863299   -4.910920   -1.825413
H     -2.352556   -3.880705   -0.810912
H     -1.964974    0.791198    0.463914
H     -1.060088    0.190937   -1.752469
H      2.297357   -0.698604   -2.704748
H      1.418210    0.814884   -2.387132
H      2.213182    2.282526   -0.403150
H      1.614339    0.905131    0.576145
H      3.576445    2.667457    1.388139
H      3.354819    1.018557    2.052927
H      5.685137   -0.812376    0.596863
H      5.747249    0.114573   -0.954833
H      4.003838   -1.453861   -1.254368
H      3.323513   -1.170844    0.394533
H      7.542403    1.692603   -0.395951
H      7.755009    0.533834    0.984643
H      8.230947    2.262903    1.169167
