72
Lipophilicity 911 3.309999942779541
C     -6.373185    3.400748    0.338455
C     -5.924114    2.586305   -0.871238
C     -6.836306    1.402874   -1.093757
C     -7.891397    1.519365   -2.012531
C     -8.778565    0.462584   -2.210507
C     -8.637463   -0.717627   -1.482283
C     -7.610571   -0.852817   -0.535270
C     -7.479063   -2.155849    0.218866
C     -6.614767   -3.147976   -0.553901
C     -6.693042    0.207919   -0.349175
N     -5.641992    0.083621    0.617771
C     -4.309881   -0.292343    0.239274
O     -4.026335   -0.452392   -0.979504
N     -3.295820   -0.496866    1.234512
C     -3.477183   -0.243393    2.669559
C     -2.148659   -0.593920    3.220870
N     -1.465865    0.030101    4.196694
N     -0.176041    0.021548    3.883768
C     -0.053708   -0.600169    2.688017
N      1.142252   -0.618327    1.896992
C      2.423784   -0.190777    2.389158
O      2.570638    0.073823    3.614280
C      3.592167   -0.090297    1.481714
C      3.424988    0.137094    0.105054
C      4.534285    0.217665   -0.740908
C      5.836293    0.079758   -0.230646
C      6.003336   -0.130737    1.148931
C      4.894163   -0.210317    1.995719
N      6.980505    0.147116   -1.109693
C      8.256961    0.699757   -0.638737
C      9.037040    1.304987   -1.814690
N      9.239402    0.355402   -2.940238
C     10.628589   -0.126382   -2.990020
C      8.298520   -0.788681   -2.963885
C      6.902640   -0.392345   -2.473547
C     -1.299462   -1.002158    2.253623
C     -1.934500   -0.946100    0.916460
H     -5.718927    4.290393    0.450014
H     -7.420365    3.747844    0.204539
H     -6.300932    2.792299    1.263515
H     -5.921907    3.245331   -1.767265
H     -4.876235    2.251793   -0.724174
H     -8.029196    2.432833   -2.577879
H     -9.581721    0.559579   -2.929784
H     -9.334309   -1.528927   -1.654615
H     -7.040483   -1.989587    1.225531
H     -8.484549   -2.603404    0.380111
H     -5.583961   -2.753894   -0.673640
H     -7.052697   -3.341677   -1.557110
H     -6.563031   -4.108881    0.001781
H     -5.898601    0.161201    1.626365
H     -4.257928   -0.910413    3.093312
H     -3.710846    0.828666    2.845861
H     -1.873386    0.570643    4.991359
H      1.078009   -1.034491    0.941553
H      2.440544    0.275098   -0.321293
H      4.372621    0.402204   -1.794491
H      6.991942   -0.253031    1.571600
H      5.055288   -0.384607    3.052342
H      8.856475   -0.103576   -0.159724
H      8.074624    1.501964    0.109534
H     10.000494    1.715741   -1.435304
H      8.462263    2.174991   -2.199660
H     10.903580   -0.641568   -2.042991
H     10.765102   -0.828017   -3.841172
H     11.321022    0.726536   -3.155689
H      8.217184   -1.170238   -4.004636
H      8.667911   -1.622114   -2.322193
H      6.256248   -1.297485   -2.488473
H      6.466988    0.371984   -3.152540
H     -1.952566   -1.954045    0.451210
H     -1.426299   -0.204336    0.263118
