50
Lipophilicity 1776 3.450000047683716
C     -7.959779    0.614801   -0.284651
N     -6.497838    0.733701   -0.421483
C     -5.863758    0.787317    0.910880
C     -4.341305    0.848773    0.775416
N     -3.843872   -0.278048   -0.025427
C     -4.808700   -1.148597   -0.708847
C     -5.949375   -0.317735   -1.322584
C     -2.442275   -0.623836    0.019470
C     -2.034164   -1.987391    0.060425
C     -0.671014   -2.332530    0.118151
C      0.258506   -1.299041    0.136430
N      1.598164   -1.398672    0.194865
C      1.998845   -0.098239    0.187206
N      0.968578    0.784222    0.132541
C     -0.120251    0.006919    0.100526
C     -1.456510    0.392983    0.042152
C      3.423384    0.309635    0.262911
C      4.412380   -0.344016   -0.509304
N      4.025155   -1.389207   -1.413988
C      5.771561    0.047750   -0.384054
C      6.813409   -0.501235   -1.176687
F      6.576157   -1.404684   -2.159426
C      8.134804   -0.084118   -0.993043
C      8.445472    0.886675   -0.044619
C      7.434239    1.463397    0.719698
C      6.098940    1.062443    0.552854
N      5.121145    1.661176    1.287298
C      3.813170    1.317527    1.163208
O      2.956143    1.893141    1.887876
H     -8.361222    1.454279    0.324468
H     -8.237126   -0.350975    0.197232
H     -8.441445    0.676024   -1.284798
H     -6.146148   -0.103023    1.519634
H     -6.203757    1.697873    1.452151
H     -3.891945    0.815492    1.792540
H     -4.056261    1.806421    0.288100
H     -4.310861   -1.715345   -1.525977
H     -5.225634   -1.878703    0.018462
H     -6.735609   -1.024575   -1.676849
H     -5.553300    0.189962   -2.228970
H     -2.769265   -2.781123    0.067432
H     -0.357960   -3.367900    0.153713
H      1.009430    1.827512    0.105338
H     -1.718587    1.442204    0.006913
H      3.126080   -1.335589   -1.942160
H      4.549998   -2.289781   -1.448699
H      8.923886   -0.509688   -1.599706
H      9.471651    1.204149    0.088186
H      7.691561    2.230748    1.439426
H      5.375300    2.408928    1.973678
