56
Lipophilicity 775 3.880000114440918
O      9.307011    2.417461    2.013231
N      7.948276    2.263882    1.857629
O      7.181703    3.011103    2.500368
C      7.422591    1.261096    0.968345
C      8.292833    0.427865    0.245750
C      7.786243   -0.547901   -0.614398
C      6.407716   -0.705611   -0.765473
C      5.515314    0.115610   -0.055092
C      6.033023    1.097144    0.810920
C      4.048045   -0.050614   -0.216469
C      3.477513   -1.333860   -0.289893
C      2.096572   -1.490289   -0.441005
C      1.259535   -0.362596   -0.522851
O     -0.130229   -0.465686   -0.673825
C     -0.847397   -1.695764   -0.742899
C     -2.355502   -1.438133   -0.878820
C     -2.683864   -0.597737   -2.136410
C     -4.181125   -0.588141   -2.495327
C     -5.006795    0.232024   -1.537024
C     -4.894293    1.630391   -1.521779
C     -5.644398    2.371637   -0.605814
N     -6.481801    1.740775    0.259421
C     -6.618093    0.388323    0.260515
C     -5.887216   -0.390759   -0.639367
N     -2.884240   -0.833377    0.354984
C     -3.529023   -1.540496    1.402881
O     -3.840493   -2.758345    1.320707
C     -3.799819   -0.702980    2.606581
C     -3.206889    0.670191    2.242817
C     -2.652955    0.471671    0.872477
O     -2.040374    1.372556    0.241245
C      1.825782    0.913941   -0.451330
C      3.205869    1.072382   -0.299094
H      9.365668    0.530036    0.344913
H      8.465286   -1.182462   -1.169324
H      6.039623   -1.458103   -1.451559
H      5.353305    1.721661    1.376761
H      4.097801   -2.218061   -0.212675
H      1.690853   -2.491447   -0.490196
H     -0.662662   -2.288534    0.179658
H     -0.493480   -2.283138   -1.618315
H     -2.831586   -2.433887   -1.020642
H     -2.304595    0.440048   -2.041646
H     -2.146825   -1.045387   -3.001430
H     -4.559396   -1.632457   -2.550957
H     -4.297538   -0.156459   -3.513219
H     -4.225615    2.139112   -2.204879
H     -5.558540    3.449642   -0.581236
H     -7.290806   -0.083655    0.963898
H     -5.994697   -1.468119   -0.624357
H     -3.291260   -1.133330    3.495704
H     -4.894347   -0.629451    2.783093
H     -2.395935    0.953257    2.947525
H     -3.996348    1.451915    2.225280
H      1.191641    1.789171   -0.516679
H      3.615931    2.073889   -0.263735
