66
Lipophilicity 522 2.190000057220459
O      9.772465    1.303374   -2.151611
C      8.843054    1.499972   -1.324632
C      9.119085    2.243095   -0.046530
O      7.922218    2.785400    0.522813
C      6.660119    2.210710    0.331843
C      5.583498    2.577343    1.140503
C      4.329566    1.999127    0.930304
C      4.167597    1.051497   -0.093657
C      2.819419    0.447211   -0.368443
N      2.969064   -0.965114   -0.758200
C      1.752043   -1.790292   -0.604909
C      0.488633   -1.153846   -1.216895
C     -0.716931   -2.091464   -1.038396
N     -0.926151   -2.473745    0.375522
C     -1.527369   -1.398458    1.198414
C     -2.916208   -1.829848    1.675337
N     -3.817768   -2.062093    0.531871
C     -3.952689   -3.397182   -0.002686
O     -3.429471   -4.384247    0.582456
C     -4.649602   -3.613778   -1.310755
O     -5.657170   -2.628747   -1.517653
C     -5.499150   -1.305007   -1.100157
C     -6.290458   -0.308826   -1.673813
C     -6.129088    1.023269   -1.297178
C     -5.174392    1.377009   -0.329217
C     -4.396727    0.366747    0.265449
C     -4.558212   -0.986068   -0.102772
C     -4.979328    2.788692    0.081674
O     -4.109099    3.166377    0.992515
C     -4.174637    4.469874    1.132461
C     -5.129102    4.980201    0.278909
C     -5.650585    3.901159   -0.401265
C      0.277313   -3.082471    0.981371
C      1.512268   -2.174323    0.863357
N      5.228485    0.736039   -0.889832
C      6.459125    1.281152   -0.695379
N      7.543552    0.951042   -1.565086
H      9.836762    3.069228   -0.234447
H      9.575414    1.538369    0.680629
H      5.718854    3.306213    1.929508
H      3.494947    2.288178    1.557411
H      2.186512    0.545822    0.538102
H      2.337413    1.023199   -1.189366
H      3.254210   -0.993521   -1.765951
H      1.935715   -2.742271   -1.155585
H      0.260330   -0.180035   -0.736770
H      0.652110   -0.971439   -2.300918
H     -1.631107   -1.605686   -1.445777
H     -0.558526   -3.011868   -1.641857
H     -0.913139   -1.170814    2.097582
H     -1.615799   -0.444350    0.636367
H     -2.817192   -2.747888    2.293868
H     -3.342055   -1.068493    2.361318
H     -3.899872   -3.542000   -2.126828
H     -5.114760   -4.622115   -1.339691
H     -7.022002   -0.567465   -2.428837
H     -6.751246    1.769907   -1.770494
H     -3.671949    0.649889    1.013530
H     -3.564672    5.041804    1.818472
H     -5.411517    6.018314    0.165503
H     -6.425981    3.938917   -1.153124
H      0.485911   -4.051282    0.476839
H      0.090138   -3.322310    2.051404
H      1.366435   -1.275865    1.495949
H      2.399732   -2.718709    1.251535
H      7.381967    0.332490   -2.391319
