51
Lipophilicity 199 3.9000000953674316
F      3.899698   -5.283604   -1.759258
C      3.431800   -4.519903   -0.707851
F      4.162414   -4.826984    0.425773
F      2.096456   -4.815860   -0.502286
O      3.586806   -3.140304   -1.033825
C      3.229979   -2.064952   -0.204381
C      2.647977   -2.243159    1.065447
C      2.302290   -1.134860    1.844354
C      2.544462    0.165375    1.376156
C      2.084278    1.351711    2.178176
N      0.649141    1.540761    1.988862
C      0.113453    2.077707    0.772515
O      0.821781    2.825285    0.043681
C     -1.266823    1.685781    0.323624
N     -1.202194    0.919803   -0.930349
C     -0.436609   -0.309302   -1.140954
C     -1.378076   -1.503671   -1.350240
C     -2.067665   -1.978333   -0.069396
C     -1.328588   -3.305077   -0.173816
F     -0.444435   -3.511783    0.871441
F     -2.175799   -4.380934   -0.378708
C     -0.640342   -2.839612   -1.449425
C     -1.914347    1.634291   -1.937254
O     -2.023815    1.260059   -3.135032
C     -2.462612    2.843700   -1.377602
C     -3.236738    3.842732   -1.965168
C     -3.645046    4.919541   -1.160995
C     -3.277028    4.972558    0.199134
C     -2.495631    3.950150    0.765137
C     -2.091473    2.890396   -0.050028
C      3.120772    0.342758    0.109569
C      3.461535   -0.765510   -0.670764
H      2.446661   -3.230060    1.456686
H      1.831783   -1.289620    2.807699
H      2.634565    2.273316    1.888463
H      2.292338    1.174027    3.255566
H      0.001069    1.084483    2.670040
H     -1.795375    1.094538    1.101455
H      0.214923   -0.186578   -2.032590
H      0.222208   -0.498830   -0.266999
H     -2.091911   -1.357293   -2.191007
H     -3.166469   -2.087918   -0.199772
H     -1.785622   -1.405561    0.841448
H     -0.950507   -3.426614   -2.341435
H      0.463202   -2.758193   -1.336955
H     -3.517802    3.790639   -3.009022
H     -4.247406    5.711172   -1.587255
H     -3.598761    5.804794    0.811519
H     -2.212008    3.984916    1.808943
H      3.291887    1.337954   -0.281105
H      3.901603   -0.613932   -1.648265
