51
Lipophilicity 120 2.2100000381469727
C     -7.311357   -1.111975   -1.762171
C     -7.092107   -0.839664   -0.278057
N     -5.665242   -0.727613    0.019030
C     -4.798049   -1.872339    0.068376
O     -5.280298   -3.030378   -0.059651
C     -3.344310   -1.722025    0.276782
C     -2.640079   -0.516238    0.324917
C     -1.319318   -0.874094    0.516850
C     -0.147248   -0.114216    0.600999
C      1.077734   -0.824741    0.738890
C      1.054745   -2.243758    0.767077
N     -0.122500   -2.928178    0.675824
C     -1.281543   -2.238473    0.558314
N     -2.502560   -2.774284    0.417945
C      2.372879   -0.122667    0.892899
C      2.542683    0.861168    1.877088
N      3.730600    1.507238    1.999700
C      4.787937    1.224173    1.194935
C      4.684364    0.230281    0.207869
C      3.457355   -0.438569    0.061790
C      5.840874   -0.074115   -0.668933
O      6.735418    0.799773   -0.837391
N      5.970044   -1.350502   -1.314330
C      7.023195   -1.609544   -2.288389
N     -0.182206    1.317953    0.490027
C     -0.995296    2.151112    1.169017
C     -0.707247    3.445457    0.792737
C      0.320049    3.317045   -0.124743
N      0.615029    2.015178   -0.304338
C      0.964334    4.432616   -0.883362
F      2.202176    4.031868   -1.352724
F      1.130157    5.530549   -0.058865
F      0.163393    4.782444   -1.953926
H     -8.400066   -1.149417   -1.976981
H     -6.853885   -0.302048   -2.369170
H     -6.859197   -2.083811   -2.050813
H     -7.546738   -1.649984    0.331810
H     -7.598686    0.113542   -0.012555
H     -5.295256    0.216003    0.267769
H     -3.031384    0.483733    0.203723
H      1.976410   -2.800959    0.877256
H     -2.743776   -3.790451    0.401921
H      1.731034    1.115531    2.546607
H      5.713569    1.766970    1.336897
H      3.323181   -1.176397   -0.718485
H      5.333458   -2.137402   -1.058275
H      6.952110   -2.656269   -2.652435
H      6.913503   -0.920820   -3.152366
H      8.017915   -1.460861   -1.817838
H     -1.735921    1.844487    1.896305
H     -1.179877    4.354673    1.139779
