27
Lipophilicity 788 4.0
C     -4.666310    0.399645   -0.184991
C     -3.786785    1.368350    0.295782
C     -2.411475    1.120198    0.316739
C     -1.887944   -0.107796   -0.145186
C     -2.797613   -1.076678   -0.628729
C     -4.172328   -0.819948   -0.646088
C     -0.407722   -0.337138   -0.106978
C      0.195202   -1.534935   -0.549350
C      1.582794   -1.683347   -0.485926
C      2.375598   -0.647393    0.015018
C      3.771576   -0.766034    0.091534
C      4.534775    0.291000    0.598547
C      3.910269    1.466184    1.029585
C      2.519144    1.590685    0.955936
C      1.748504    0.537583    0.449887
N      0.396537    0.654083    0.376452
H     -5.730994    0.593934   -0.200316
H     -4.170571    2.315094    0.653698
H     -1.760567    1.896845    0.697297
H     -2.473777   -2.036188   -0.997321
H     -4.857004   -1.570957   -1.019062
H     -0.374894   -2.360508   -0.943022
H      2.034454   -2.606980   -0.828233
H      4.268791   -1.670255   -0.238615
H      5.611630    0.199441    0.657551
H      4.505182    2.281205    1.421091
H      2.043528    2.503909    1.291760
