47
Lipophilicity 864 3.4600000381469727
C      2.356833   -1.599917    2.105473
C      1.477344   -0.882705    1.126427
C      0.348359   -1.425609    0.547646
C     -0.157073   -0.463398   -0.304871
C     -1.394871   -0.621166   -1.094524
O     -1.682074   -1.759094   -1.554768
C     -2.340347    0.524159   -1.333278
N     -3.726836    0.109997   -1.058778
C     -4.179041    0.152361    0.233116
C     -5.478980   -0.266599    0.559260
C     -6.321936   -0.695746   -0.473256
C     -5.850027   -0.750543   -1.781868
C     -4.540969   -0.352484   -2.063297
O     -4.123207   -0.424598   -3.251476
C     -5.984485   -0.164306    1.976325
F     -6.987624   -1.089483    2.208645
F     -4.959833   -0.402696    2.875872
F     -6.485514    1.106129    2.190063
C      0.716252    0.620971   -0.249172
C      0.606457    1.885240   -1.056608
N      1.704542    0.361791    0.643782
C      2.819972    1.241504    1.020575
C      4.122475    0.721189    0.468122
C      4.286256    0.539692   -0.915904
C      5.495171    0.056569   -1.425858
C      6.550073   -0.244873   -0.560735
C      6.398232   -0.062491    0.816153
C      5.191153    0.420657    1.330602
H      3.295934   -1.910332    1.602672
H      1.845301   -2.504611    2.496734
H      2.596798   -0.936856    2.961799
H     -0.071747   -2.404320    0.741783
H     -2.078706    1.384536   -0.680067
H     -2.228447    0.879221   -2.380101
H     -3.526039    0.513894    1.019850
H     -7.343011   -0.992403   -0.268893
H     -6.500319   -1.100483   -2.574401
H      0.084513    2.663045   -0.462000
H      1.608117    2.258582   -1.347121
H      0.054145    1.702217   -1.999797
H      2.861268    1.317742    2.128523
H      2.657941    2.276075    0.655941
H      3.478922    0.764332   -1.599791
H      5.613876   -0.084739   -2.492354
H      7.485028   -0.619172   -0.957210
H      7.216239   -0.295680    1.485446
H      5.089886    0.554400    2.400402
