38
Lipophilicity 587 1.2000000476837158
C     -4.207798   -2.222731   -0.408275
C     -2.773390   -1.951884   -0.080955
C     -1.983618   -2.713897    0.757764
N     -0.781190   -2.130393    0.911580
C     -0.788570   -0.998850    0.177865
C      0.308133   -0.013727    0.168881
C      1.604899   -0.336140    0.062890
C      2.232486   -1.639224   -0.216408
O      1.627354   -2.716322   -0.457992
N      3.650286   -1.514348   -0.284042
C      3.902865   -0.129355   -0.081544
C      5.150942    0.491863   -0.083678
C      5.204074    1.879753    0.127828
C      4.019656    2.615916    0.334565
C      2.770854    1.971550    0.330800
C      2.739037    0.590782    0.117218
C     -2.023150   -0.839862   -0.436258
C     -2.479750    0.332806   -1.266445
C     -3.391914    1.279058   -0.476311
C     -2.654547    1.961510    0.633915
O     -2.690715    1.488365    1.801304
O     -1.894565    3.095677    0.366007
H     -4.442742   -1.877653   -1.436100
H     -4.412791   -3.312366   -0.348812
H     -4.860146   -1.693224    0.316429
H     -2.282594   -3.626754    1.256538
H     -0.016328   -2.466181    1.538153
H      0.038613    1.030323    0.242529
H      4.344655   -2.262994   -0.502072
H      6.055861   -0.079613   -0.243977
H      6.160243    2.386658    0.131939
H      4.072328    3.684560    0.497298
H      1.862889    2.537371    0.490859
H     -3.035170   -0.046893   -2.149901
H     -1.603719    0.893337   -1.658374
H     -3.788147    2.053836   -1.166973
H     -4.262899    0.723294   -0.067626
H     -1.371433    3.555753    1.101380
