23
Lipophilicity 657 1.399999976158142
N      3.115571   -1.214356   -1.561033
C      2.782338   -0.144551   -0.679765
N      3.755482    0.672513   -0.202484
C      3.436195    1.692635    0.632539
N      2.144114    1.895429    0.993090
C      1.166955    1.074341    0.528525
N     -0.198346    1.321097    0.894499
C     -1.279575    0.405878    0.648819
C     -1.103248   -0.985964    0.762255
C     -2.178256   -1.852967    0.541962
C     -3.438034   -1.340432    0.221954
C     -3.627303    0.040823    0.130914
C     -2.555080    0.911031    0.351163
N      1.490317    0.060930   -0.318073
H      2.370663   -1.845775   -1.930783
H      4.107385   -1.376906   -1.844049
H      4.211289    2.345934    1.008859
H     -0.429098    2.260678    1.290312
H     -0.145702   -1.402263    1.045219
H     -2.036533   -2.922524    0.628679
H     -4.269194   -2.012942    0.053507
H     -4.605494    0.437701   -0.108116
H     -2.714446    1.979690    0.279925
