68
Lipophilicity 1327 2.200000047683716
C    -10.527946    0.229916   -1.199783
C     -9.794083    0.734281    0.006499
O    -10.130318    1.850582    0.489539
N     -8.713675   -0.011209    0.610519
C     -8.221312    0.400418    1.932066
C     -7.205702   -0.608510    2.482728
N     -6.145382   -0.909964    1.497106
C     -5.133819    0.169058    1.428759
C     -3.799071   -0.379764    0.926011
O     -2.827867    0.663603    0.911841
C     -1.495870    0.495945    0.504831
C     -0.984947   -0.746804    0.093529
C      0.348519   -0.864815   -0.304684
C      1.200263    0.259081   -0.332418
C      0.685397    1.492600    0.119739
C     -0.649165    1.607261    0.519427
C      2.677095    0.093983   -0.723312
O      2.819289   -1.027901   -1.570329
C      3.241994    1.337680   -1.457633
C      4.667074    1.048644   -1.948897
N      5.477617    0.378381   -0.913801
C      4.979192    0.311591    0.472271
C      3.512949   -0.169718    0.555856
C      6.866177    0.071002   -1.176725
C      7.323214   -0.256450   -2.483741
C      8.676669   -0.561959   -2.704328
C      9.518625   -0.522616   -1.603295
N     10.839456   -0.780841   -1.559864
N     11.204898   -0.622167   -0.286864
C     10.101258   -0.269082    0.415295
N      9.042870   -0.208361   -0.401415
N      7.769934    0.081873   -0.148946
C     10.067255   -0.015035    1.888806
F      9.521095    1.231665    2.131126
F      9.294148   -0.980963    2.505686
F     11.347302   -0.057117    2.409832
C     -6.657565   -1.294624    0.150425
C     -8.189218   -1.247247    0.014048
H     -9.867617    0.286775   -2.090378
H    -10.852774   -0.819106   -1.035421
H    -11.431850    0.848627   -1.392452
H     -7.743984    1.401084    1.852833
H     -9.073885    0.473440    2.642031
H     -6.774169   -0.230037    3.435297
H     -7.733218   -1.552261    2.743881
H     -5.479159    0.999472    0.772314
H     -4.946380    0.600605    2.437665
H     -3.916004   -0.785392   -0.101466
H     -3.463160   -1.193211    1.605355
H     -1.606438   -1.631999    0.087536
H      0.712921   -1.844186   -0.586131
H      1.306969    2.373425    0.179106
H     -1.026423    2.567302    0.849609
H      2.295619   -0.853274   -2.397202
H      2.598298    1.602976   -2.324971
H      3.286402    2.215991   -0.779403
H      4.589407    0.398434   -2.845313
H      5.156410    1.999865   -2.250322
H      5.059200    1.324883    0.922351
H      5.601691   -0.374912    1.086545
H      3.048452    0.333195    1.433973
H      3.499213   -1.259469    0.779907
H      6.645632   -0.297693   -3.324056
H      9.042288   -0.822797   -3.688753
H     -6.317848   -2.328742   -0.070299
H     -6.235831   -0.649219   -0.653079
H     -8.643175   -2.122653    0.525993
H     -8.436939   -1.320411   -1.065058
