46
Lipophilicity 220 3.5999999046325684
F      8.649269    0.463747   -0.154323
C      7.898368   -0.663488   -0.068571
C      8.369115   -1.844475   -0.650589
C      7.609613   -3.014573   -0.575726
C      6.381063   -3.008694    0.088856
C      5.904965   -1.831331    0.671574
C      6.653305   -0.642855    0.585363
N      6.198583    0.568242    1.209143
C      4.817873    0.933153    1.315530
O      3.839105    0.349211    0.665320
C      2.763180    1.002980    1.032990
N      3.062417    1.989786    1.903623
N      4.374357    1.947966    2.080799
C      1.409720    0.703057    0.545907
O      1.262023   -0.186324   -0.335555
N      0.279004    1.445504    1.034794
C     -1.085530    1.178113    0.665160
C     -1.549835   -0.131715    0.456834
C     -2.879164   -0.359125    0.091143
C     -3.772336    0.712900   -0.057190
N     -5.130053    0.458521   -0.461425
C     -5.398043   -0.181773   -1.752027
C     -6.685124   -1.006823   -1.656238
O     -7.750990   -0.220326   -1.157380
C     -7.476333    0.169840    0.176216
C     -6.253698    1.092187    0.232802
C     -3.318697    2.021323    0.189038
F     -4.146796    3.084428    0.040147
C     -1.987589    2.246130    0.553353
H      9.326825   -1.853239   -1.157130
H      7.979930   -3.927789   -1.022490
H      5.802925   -3.920494    0.163332
H      4.969527   -1.860213    1.213339
H      6.908300    1.255947    1.546927
H      0.465703    2.306423    1.597689
H     -0.896577   -0.982078    0.597438
H     -3.217544   -1.375411   -0.064393
H     -4.560360   -0.849118   -2.049901
H     -5.512945    0.601225   -2.532120
H     -6.956048   -1.364167   -2.672302
H     -6.521764   -1.910398   -1.021857
H     -7.325467   -0.717956    0.831799
H     -8.358524    0.717206    0.572499
H     -6.498498    2.055968   -0.266131
H     -5.993187    1.288902    1.296312
H     -1.650068    3.259604    0.728124
