37
Lipophilicity 1608 1.6200000047683716
C     -5.166791   -1.296010   -1.705306
C     -4.444955   -0.327758   -0.816040
C     -5.129357    0.743213   -0.225576
C     -4.440806    1.618420    0.623506
N     -5.113790    2.727575    1.220118
N     -3.122150    1.409679    0.884181
C     -2.437070    0.362191    0.349649
C     -0.976738    0.197987    0.653623
C     -0.124998    0.887891   -0.414402
N      1.296688    0.714152   -0.123542
C      2.001805   -0.498084   -0.443387
O      1.357824   -1.494410   -0.873008
C      3.472120   -0.608673   -0.266851
C      4.296560    0.533275   -0.240369
C      5.680482    0.406508   -0.083583
C      6.261682   -0.860465    0.038781
C      5.454185   -2.002478    0.000234
C      4.070138   -1.878623   -0.153587
C      7.686669   -0.988742    0.197197
N      8.832215   -1.091837    0.324549
C     -3.090016   -0.523536   -0.518593
H     -4.504742   -1.626348   -2.533686
H     -5.476075   -2.181361   -1.111320
H     -6.069593   -0.829051   -2.153812
H     -6.182177    0.898803   -0.428348
H     -6.126919    2.903520    1.037592
H     -4.592387    3.387519    1.839459
H     -0.752283    0.643163    1.647538
H     -0.725286   -0.882705    0.706541
H     -0.362490    1.974535   -0.423686
H     -0.356024    0.481841   -1.423352
H      1.789644    1.499911    0.352634
H      3.886240    1.525483   -0.365436
H      6.297828    1.296799   -0.064606
H      5.893746   -2.989487    0.089909
H      3.466405   -2.777694   -0.176540
H     -2.549585   -1.355202   -0.955675
