63
Lipophilicity 240 1.9900000095367432
C     10.911112    0.806273    1.430214
N      9.553672    0.743293    0.902410
C      8.601111   -0.215450    1.389550
O      8.889686   -0.921645    2.394625
C      7.276259   -0.379465    0.743161
C      6.196503   -0.903540    1.476892
C      4.945551   -1.074367    0.877476
C      4.752870   -0.732948   -0.469620
C      3.409343   -0.921020   -1.125218
N      2.864090    0.380223   -1.569837
C      2.383911    1.226315   -0.441917
C      0.851849    1.393088   -0.383089
C      0.147254    0.076948   -0.746432
C      0.556095   -0.414807   -2.157397
C      1.869398    0.223557   -2.651888
C     -1.359160    0.204411   -0.606359
C     -2.049312   -0.583698    0.329023
C     -3.434345   -0.465979    0.475727
C     -4.162702    0.437647   -0.318095
C     -3.470221    1.234660   -1.245636
C     -2.085497    1.118240   -1.390503
C     -5.631438    0.585061   -0.170552
O     -6.168054    1.688643   -0.465142
N     -6.447632   -0.501491    0.304655
C     -7.870439   -0.393141    0.472653
C     -8.665791    0.104729   -0.574432
C    -10.054014    0.175028   -0.438136
C    -10.663948   -0.258952    0.739160
C     -9.887880   -0.767756    1.782373
C     -8.491042   -0.841639    1.661111
N     -7.718422   -1.342212    2.759958
C      5.828904   -0.219801   -1.208449
C      7.079768   -0.044822   -0.609179
H     10.882742    1.004249    2.522783
H     11.473427    1.624324    0.931687
H     11.432499   -0.155739    1.240756
H      9.271037    1.448805    0.186470
H      6.316858   -1.172212    2.519332
H      4.127903   -1.471818    1.466062
H      2.698789   -1.433478   -0.440103
H      3.561779   -1.599571   -1.993947
H      2.841485    2.233392   -0.542459
H      2.728395    0.829921    0.539393
H      0.556911    1.712328    0.641185
H      0.546825    2.198597   -1.086845
H      0.505578   -0.681922   -0.014967
H      0.673681   -1.520295   -2.133709
H     -0.231725   -0.196545   -2.910182
H      2.290778   -0.380202   -3.485633
H      1.648291    1.225261   -3.082888
H     -1.515212   -1.285784    0.957006
H     -3.921943   -1.064532    1.232648
H     -4.002320    1.943035   -1.868900
H     -1.580955    1.740344   -2.118670
H     -6.005300   -1.417958    0.535370
H     -8.212311    0.417457   -1.506221
H    -10.657812    0.558593   -1.250244
H    -11.740278   -0.205599    0.842435
H    -10.375017   -1.101667    2.690429
H     -6.675086   -1.342126    2.747335
H     -8.189990   -1.689065    3.625070
H      5.699123    0.039991   -2.252241
H      7.894363    0.326833   -1.216869
