63
Lipophilicity 339 0.3700000047683716
C     -4.577222    3.152869   -1.627273
O     -5.916121    2.691896   -1.464366
C     -6.289000    1.594899   -0.672447
C     -7.643679    1.266831   -0.601116
C     -8.069593    0.176739    0.154597
C     -7.143139   -0.600989    0.854416
N     -7.573985   -1.673610    1.560543
C     -6.708532   -2.464168    2.233875
C     -5.343440   -2.176922    2.214209
O     -4.556406   -2.945201    2.832589
N     -4.872291   -1.080119    1.529647
C     -3.418575   -0.801158    1.544075
C     -2.745069   -1.367924    0.289049
N     -1.343431   -0.905317    0.220077
C     -0.422369   -1.853791    0.882293
C      0.966570   -1.211921    1.077841
C      1.223405   -0.096679    0.042342
N      2.643461    0.317172    0.004434
C      3.543792   -0.569359   -0.744648
C      4.967646   -0.236912   -0.408685
C      5.744588   -1.100483    0.380240
C      7.068591   -0.762100    0.670524
C      7.601840    0.430161    0.179589
O      8.925903    0.786787    0.460055
C      9.620851    1.810800   -0.258132
C      8.678929    2.868397   -0.766982
O      9.108651    4.020720   -1.034679
N      7.310260    2.537966   -1.021534
C      6.789281    1.283840   -0.578212
N      5.503871    0.934716   -0.853380
C      0.602643   -0.454407   -1.332627
O      1.160774   -1.644907   -1.830485
C     -0.931379   -0.644551   -1.181767
C     -5.761132   -0.288318    0.820112
C     -5.350144    0.821362    0.039457
H     -4.574603    4.028883   -2.307041
H     -3.949516    2.354166   -2.076886
H     -4.157456    3.462152   -0.646449
H     -8.372133    1.855634   -1.144314
H     -9.124039   -0.066882    0.188524
H     -7.082202   -3.321343    2.779566
H     -3.226828    0.287809    1.639049
H     -2.935455   -1.233863    2.445865
H     -2.809266   -2.479671    0.294544
H     -3.320388   -1.023527   -0.598759
H     -0.324095   -2.780893    0.271698
H     -0.814297   -2.152926    1.879152
H      1.029458   -0.771610    2.096948
H      1.736637   -2.007636    1.014372
H      0.656112    0.790713    0.410344
H      2.690649    1.267286   -0.433728
H      3.346456   -1.635059   -0.507639
H      3.402980   -0.423877   -1.837889
H      5.334260   -2.029454    0.758082
H      7.681721   -1.428799    1.265685
H     10.384250    2.264965    0.407858
H     10.136916    1.352465   -1.128037
H      6.686365    3.223325   -1.504296
H      0.802422    0.383875   -2.040757
H      1.024866   -1.637149   -2.813837
H     -1.274844   -1.466964   -1.851297
H     -1.433041    0.287068   -1.523499
H     -4.310476    1.084996   -0.043228
