45
Lipophilicity 316 3.2100000381469727
O      1.086309    1.792194   -2.385807
C      1.586140    1.601000   -1.244122
C      3.065400    1.766261   -1.055313
O      3.773799    0.796161   -1.803669
C      3.854727   -0.429780   -1.099294
C      5.021365   -0.422059   -0.146966
C      4.811419   -0.486352    1.241260
C      5.899987   -0.468131    2.119248
C      7.202362   -0.384458    1.618672
C      7.418419   -0.314272    0.239069
C      6.332648   -0.332646   -0.642414
N      0.751882    1.248691   -0.128844
C     -0.605993    0.791849   -0.252668
C     -1.013677   -0.002170   -1.330413
C     -2.329884   -0.457584   -1.419632
C     -3.283278   -0.140787   -0.424390
C     -2.856248    0.639566    0.681508
C     -1.525048    1.089278    0.757082
C     -3.803031    0.981833    1.762801
O     -3.430673    1.671143    2.751957
C     -5.188204    0.516297    1.689082
O     -5.994016    0.810767    2.614925
C     -5.628903   -0.288648    0.531562
C     -6.963436   -0.729130    0.460373
C     -7.404021   -1.481584   -0.625421
C     -6.522357   -1.802487   -1.651683
C     -5.194417   -1.375393   -1.599506
C     -4.714838   -0.613255   -0.506413
H      3.339546    1.755500    0.024367
H      3.350966    2.769974   -1.434296
H      2.902175   -0.688458   -0.580838
H      4.019150   -1.240281   -1.840057
H      3.807394   -0.546368    1.644048
H      5.733873   -0.518225    3.187683
H      8.043853   -0.369918    2.299460
H      8.427350   -0.244095   -0.147327
H      6.512033   -0.273807   -1.709485
H      1.132553    1.400219    0.833092
H     -0.308249   -0.296279   -2.096301
H     -2.567704   -1.065627   -2.275451
H     -1.197287    1.685016    1.600365
H     -7.670309   -0.489986    1.245423
H     -8.432844   -1.814902   -0.671920
H     -6.869436   -2.384813   -2.495898
H     -4.569496   -1.654257   -2.430724
