56
Lipophilicity 2055 3.4000000953674316
C      9.747399   -0.444634   -0.784086
O      9.220396    0.481872    0.141291
C      7.867974    0.769057   -0.166386
C      6.931485   -0.173746    0.549656
O      7.407819   -0.964560    1.410372
N      5.506142   -0.154027    0.297272
C      4.939653    0.781252   -0.691698
C      3.407225    0.715239   -0.731374
C      2.841192    0.739827    0.698843
C      3.398880   -0.409080    1.579089
C      4.614981   -1.119116    0.963175
N      1.375370    0.713152    0.677636
C      0.594959   -0.229112    0.111370
C     -0.728097    0.095635    0.358010
C     -0.666733    1.267456    1.099923
N      0.620981    1.616653    1.283407
C     -1.941146   -0.654698   -0.062092
C     -1.833866   -1.906725   -0.684849
N     -2.948003   -2.590619   -1.048391
C     -4.203180   -2.108455   -0.849083
N     -5.313475   -2.942630   -1.196678
C     -4.372719   -0.834793   -0.258667
C     -3.226892   -0.128111    0.144254
C     -5.700340   -0.199579   -0.089891
O     -6.744794   -0.454420   -0.863718
C     -7.711173    0.302380   -0.421197
C     -9.019812    0.410325   -0.882722
C     -9.869918    1.314354   -0.217108
C     -9.391129    2.074496    0.876141
C     -8.058692    1.936116    1.312037
C     -7.248164    1.031665    0.630219
N     -5.959391    0.735462    0.865695
H      9.828995    0.010508   -1.795350
H     10.768876   -0.729519   -0.459774
H      9.136844   -1.374627   -0.824683
H      7.652632    1.797503    0.191173
H      7.667021    0.764841   -1.263268
H      5.335223    0.544520   -1.702655
H      5.237718    1.819678   -0.427772
H      3.093944   -0.213553   -1.255551
H      3.015414    1.581951   -1.306860
H      3.164970    1.703517    1.155973
H      3.692555    0.009452    2.566890
H      2.616704   -1.173825    1.777347
H      5.136289   -1.683435    1.765070
H      4.268220   -1.863053    0.213009
H      0.968542   -1.087407   -0.430585
H     -1.499134    1.830067    1.499559
H     -0.870275   -2.358719   -0.870249
H     -5.146889   -3.824329   -1.730390
H     -6.263834   -2.801592   -0.791758
H     -3.343077    0.850115    0.590185
H     -9.370063   -0.178840   -1.719948
H    -10.895430    1.428067   -0.543684
H    -10.052420    2.766713    1.380977
H     -7.679755    2.511330    2.146909
