68
Lipophilicity 692 3.9000000953674316
C      5.842575    2.304508    0.130833
N      4.801742    1.307989   -0.135141
C      3.438340    1.486023    0.310510
C      3.062505    2.561527    1.132048
C      1.731653    2.662855    1.535578
N      0.826465    1.737127    1.130870
C      1.190804    0.706805    0.322339
N      0.240707   -0.294179   -0.069467
C     -1.179637   -0.176398    0.103841
C     -1.836897    1.049002   -0.062484
C     -3.232979    1.099373    0.087321
N     -3.901136   -0.052752    0.363855
C     -3.260980   -1.245272    0.495541
N     -1.908955   -1.292631    0.356842
N     -4.011042   -2.452909    0.749517
C     -5.386676   -2.374013    1.257744
C     -6.177615   -3.621357    0.848848
O     -5.473105   -4.801960    1.184587
C     -4.279991   -4.872738    0.428767
C     -3.322986   -3.749164    0.827195
N     -3.974498    2.330373   -0.087097
C     -5.345757    2.260103   -0.612699
C     -6.133445    3.522578   -0.251772
O     -5.409041    4.681074   -0.606539
C     -4.252553    4.771691    0.198925
C     -3.281515    3.626847   -0.105224
N      2.487307    0.585978   -0.066554
C      5.184648    0.056301   -0.729364
C      5.285938   -1.083705    0.081082
C      5.647326   -2.321844   -0.468828
C      5.733772   -3.548011    0.399860
O      6.987522   -4.160335    0.265059
C      5.904305   -2.414280   -1.843538
C      5.808246   -1.283813   -2.658039
C      5.431359   -0.044501   -2.115700
C      5.329773    1.159706   -3.011460
H      5.509486    3.304694   -0.217217
H      6.059200    2.333446    1.219368
H      6.783762    2.050751   -0.401376
H      3.775254    3.303037    1.469074
H      1.418788    3.475199    2.178408
H      0.613725   -1.209930   -0.408596
H     -1.275413    1.924804   -0.355981
H     -5.910846   -1.482887    0.849619
H     -5.363308   -2.288362    2.366133
H     -6.420193   -3.592724   -0.238186
H     -7.143943   -3.622932    1.397305
H     -4.488892   -4.835765   -0.665427
H     -3.789945   -5.848832    0.632518
H     -2.449963   -3.778329    0.139170
H     -2.965328   -3.914402    1.866523
H     -5.306001    2.154745   -1.718198
H     -5.887886    1.384323   -0.194976
H     -6.397858    3.522103    0.830452
H     -7.088723    3.518054   -0.818160
H     -4.512846    4.788265    1.282717
H     -3.744748    5.732384   -0.023134
H     -2.828303    3.782725   -1.107274
H     -2.477456    3.647237    0.661523
H      5.082499   -0.999481    1.141747
H      5.547303   -3.302996    1.471261
H      4.946695   -4.265277    0.083390
H      7.636727   -3.564346    0.721399
H      6.183596   -3.362439   -2.286276
H      6.018940   -1.381432   -3.715938
H      6.252501    1.767934   -2.920204
H      5.204132    0.859396   -4.073734
H      4.452865    1.781037   -2.731468
