50
Lipophilicity 789 3.0
C      1.936661    0.258259    2.947501
C      2.061350   -0.069762    1.450954
C      3.540368    0.018134    1.019706
N      3.646610   -0.013912   -0.444966
C      2.763396    0.836392   -1.261722
C      1.813681    1.673698   -0.393654
N      1.210113    0.829363    0.645768
C     -0.215064    0.867012    0.864958
N     -0.867004   -0.233976    1.329334
C     -2.203163   -0.211683    1.582201
C     -2.934478    0.972621    1.385495
O     -4.302393    1.101690    1.683106
C     -5.180632    0.034305    2.044609
C     -5.651212   -0.698312    0.810973
C     -5.197263   -2.001974    0.550976
C     -5.635501   -2.671465   -0.590730
N     -6.505698   -2.068408   -1.446650
C     -6.957284   -0.806928   -1.234477
C     -6.545926   -0.092286   -0.100797
C     -7.023526    1.256664    0.085921
N     -7.396774    2.343146    0.226986
C     -2.250457    2.082850    0.890372
N     -0.916183    2.012084    0.638812
C      4.746479   -0.696821   -1.079099
O      5.660767   -1.222714   -0.375313
O      4.808258   -0.780556   -2.477010
C      5.961595   -1.234599   -3.181589
C      6.953887   -0.092293   -3.374669
F      6.368704    0.913334   -4.126125
F      8.067785   -0.562387   -4.043496
F      7.348336    0.418976   -2.147229
H      2.193762    1.317711    3.132099
H      2.618388   -0.385332    3.542581
H      0.904292    0.072577    3.307235
H      1.725187   -1.118879    1.284316
H      3.993503    0.963449    1.389352
H      4.095681   -0.830008    1.479328
H      2.163250    0.189651   -1.937963
H      3.375450    1.523119   -1.885122
H      2.373872    2.503545    0.087906
H      1.038381    2.117740   -1.053756
H     -2.670111   -1.111292    1.954798
H     -4.706984   -0.645422    2.786952
H     -6.062081    0.465867    2.559138
H     -4.516928   -2.502555    1.230265
H     -5.289877   -3.678221   -0.798498
H     -7.654078   -0.366093   -1.939946
H     -2.779617    3.009990    0.717095
H      6.447359   -2.081862   -2.643918
H      5.645121   -1.604440   -4.179260
