68
Lipophilicity 1351 2.75
C      6.244835   -2.413901    0.585143
C      5.691760   -1.453413   -0.475564
C      6.740329   -1.097816   -1.547241
C      4.990212   -0.233229    0.151807
C      5.717659    0.928266    0.515396
O      7.108987    0.940800    0.635198
C      5.057988    2.121823    0.807234
O      5.847636    3.229199    1.141868
C      3.651830    2.192876    0.794855
C      3.025433    3.462983    1.217203
O      2.245355    3.493690    2.206262
C      2.887834    1.025783    0.504177
C      1.467891    1.054897    0.384047
O      0.792242    2.278854    0.317722
C      0.736101   -0.147536    0.283182
C      1.411372   -1.379473    0.255299
C      0.654291   -2.682708    0.177145
C      2.807316   -1.397067    0.229967
C      3.567824   -0.208640    0.289219
C     -0.748450   -0.114938    0.211149
C     -1.500971   -0.002171    1.391463
C     -0.827972    0.062179    2.741014
C     -2.890913    0.095669    1.314000
C     -3.574319    0.047431    0.079232
C     -4.988867    0.242451    0.013385
C     -5.740989    0.912713    1.179513
C     -6.739941    2.002489    0.744106
C     -6.376676   -0.114216    2.126299
C     -5.658326   -0.120250   -1.181744
O     -7.049400   -0.207723   -1.271387
C     -4.939780   -0.444243   -2.331286
O     -5.675275   -0.793457   -3.470852
C     -3.530481   -0.451188   -2.326318
C     -2.831193   -0.807069   -3.578269
O     -3.011910   -0.133127   -4.626759
C     -2.826942   -0.215919   -1.107903
C     -1.401044   -0.207243   -1.037138
O     -0.634100   -0.257900   -2.206846
H      5.443553   -2.701583    1.298067
H      7.075243   -1.963960    1.162063
H      6.621015   -3.338238    0.096972
H      4.946798   -2.025213   -1.065439
H      6.880726   -1.961343   -2.233167
H      6.395111   -0.234720   -2.156261
H      7.736998   -0.872631   -1.123116
H      7.665485    0.114520    0.786296
H      5.474232    4.131545    1.406344
H      3.273581    4.385771    0.709492
H     -0.209754    2.363902    0.202375
H     -0.155543   -2.704273    0.936486
H      0.209636   -2.794019   -0.833771
H      1.315147   -3.554394    0.369080
H      3.287426   -2.364095    0.211246
H     -1.561745    0.003859    3.572868
H     -0.121274   -0.786632    2.856024
H     -0.269718    1.017248    2.834557
H     -3.430565    0.162426    2.246454
H     -5.013250    1.495224    1.780755
H     -6.334796    2.581469   -0.113189
H     -7.734648    1.598451    0.478049
H     -6.906972    2.712213    1.583402
H     -5.610174   -0.831496    2.487137
H     -6.807104    0.402814    3.010539
H     -7.182842   -0.690912    1.634271
H     -7.655638   -0.328934   -0.476085
H     -5.264309   -1.158033   -4.319444
H     -2.143386   -1.642091   -3.597245
H      0.377422   -0.225754   -2.221721
