49
Lipophilicity 947 2.5999999046325684
C     -2.891798    2.333214    0.553132
C     -1.789135    2.425465   -0.465692
C     -1.688762    3.565355   -1.281238
C     -0.708328    3.641585   -2.274048
C      0.167894    2.574386   -2.477110
C      0.069426    1.429499   -1.684866
C     -0.894907    1.350395   -0.668663
N     -0.975445    0.155405    0.133619
C     -0.297531    0.069218    1.323812
N     -0.361618   -1.070159    2.053588
C     -1.083593   -2.141572    1.651662
C     -1.102022   -3.283459    2.455707
C     -1.834469   -4.400835    2.070128
C     -2.555379   -4.387516    0.878434
C     -2.556871   -3.252971    0.045642
C     -3.364063   -3.319752   -1.227622
C     -1.804437   -2.100927    0.435362
C     -1.723305   -0.902082   -0.319729
O     -2.336838   -0.793172   -1.417229
C      0.551508    1.200524    1.854043
N      1.758440    1.374711    1.047435
C      2.235318    2.530425    0.516820
N      3.415324    2.374459   -0.144926
C      3.668700    1.060644    0.006318
C      4.746533    0.309623   -0.448191
N      5.802922    0.894147   -1.209783
N      4.765519   -1.021935   -0.139527
C      3.759765   -1.600416    0.593040
N      2.704462   -0.851785    1.034482
C      2.688252    0.467168    0.724025
H     -3.316491    3.334570    0.778031
H     -3.700979    1.682232    0.161212
H     -2.513908    1.906743    1.504601
H     -2.372706    4.395259   -1.152632
H     -0.634588    4.525774   -2.893819
H      0.922402    2.633142   -3.250702
H      0.751448    0.604873   -1.850069
H     -0.545485   -3.305894    3.384907
H     -1.844503   -5.282651    2.698086
H     -3.116351   -5.273248    0.606188
H     -4.149152   -2.534953   -1.220858
H     -3.877530   -4.298261   -1.342196
H     -2.697843   -3.192318   -2.106316
H      0.849000    0.993516    2.904781
H     -0.041180    2.139719    1.863874
H      1.728307    3.482780    0.603946
H      6.600679    0.305802   -1.537698
H      5.791330    1.909267   -1.454986
H      3.801987   -2.655995    0.823116
