59
Lipophilicity 1671 1.7999999523162842
C      5.358801   -0.290634    4.147188
O      5.673995   -0.332889    2.759489
C      4.854045    0.180276    1.741904
C      3.627460    0.812203    2.018890
C      2.837580    1.307635    0.981035
C      3.249108    1.170864   -0.354019
C      4.479648    0.554788   -0.631092
C      5.284031    0.054704    0.411762
O      6.516182   -0.572759    0.166996
C      7.083963   -0.761997   -1.125182
C      2.401191    1.716687   -1.484091
C      2.571011    3.235697   -1.581057
N      0.990290    1.366215   -1.285005
C      0.526082    0.007127   -1.368279
O      1.339321   -0.902179   -1.692434
C     -0.924287   -0.337530   -1.031417
N     -1.210461    0.073587    0.353135
C     -1.876730    0.406357   -2.004414
C     -3.356429    0.181501   -1.634415
N     -3.553210   -1.127834   -0.994173
C     -2.673593   -2.232027   -1.389502
C     -1.190099   -1.873477   -1.156288
C     -4.416978   -1.267888    0.150558
N     -4.006563   -1.992681    1.235212
C     -4.792603   -2.136522    2.347413
N     -6.026145   -1.555862    2.402892
C     -6.447355   -0.837674    1.335033
N     -7.638032   -0.234698    1.211278
C     -7.635901    0.313695   -0.025388
C     -6.435616    0.053281   -0.681748
C     -5.684190   -0.681092    0.215226
H      5.258547    0.762538    4.484253
H      6.179178   -0.769632    4.719878
H      4.417534   -0.846408    4.342115
H      3.275623    0.928001    3.034886
H      1.900191    1.795339    1.219130
H      4.803327    0.466648   -1.659442
H      7.256996    0.220311   -1.613433
H      6.412418   -1.387915   -1.749937
H      8.057913   -1.282515   -1.020386
H      2.732703    1.285024   -2.455039
H      2.242834    3.729312   -0.640896
H      1.962441    3.630412   -2.422677
H      3.636401    3.489827   -1.769078
H      0.312415    2.122330   -1.041283
H     -0.484421   -0.323655    0.994394
H     -1.160581    1.114439    0.439740
H     -1.700375    0.037522   -3.039502
H     -1.677120    1.499003   -2.010093
H     -3.979591    0.245299   -2.551523
H     -3.669689    0.993157   -0.940355
H     -2.930269   -3.169507   -0.848964
H     -2.834864   -2.434108   -2.471483
H     -0.825836   -2.391300   -0.241425
H     -0.621363   -2.301998   -2.010832
H     -4.434325   -2.716170    3.186565
H     -8.411466   -0.208253    1.912171
H     -8.468232    0.866086   -0.440852
H     -6.174903    0.349338   -1.687666
