53
Lipophilicity 63 3.5299999713897705
C      0.620188    0.456008    2.004308
C     -0.066431   -0.418480    0.943170
N      0.717580   -0.287193   -0.307491
C      1.225783   -1.575520   -0.799650
C      2.185203   -1.356387   -1.985299
O      2.621786   -2.580997   -2.522336
C      3.368156   -0.489042   -1.596043
C      4.312569   -0.934435   -0.654639
C      5.383136   -0.116576   -0.282754
C      5.528607    1.166892   -0.836356
C      4.578429    1.615444   -1.768751
C      3.510148    0.796381   -2.144989
N      6.632423    2.009381   -0.458278
O      7.548745    1.570584    0.268206
O      6.697098    3.313944   -0.892766
C     -1.609452   -0.124070    0.760036
C     -1.907160    1.353867    0.347879
C     -3.428554    1.568784    0.174908
C     -4.147373    1.276707    1.509212
C     -3.889291   -0.187387    1.923303
C     -4.431745   -1.134619    0.835903
C     -3.716229   -0.844554   -0.498198
C     -3.967256    0.619930   -0.916408
C     -2.200601   -1.076189   -0.329216
C     -2.371134   -0.411484    2.095311
H      0.185942    0.300172    3.011662
H      1.692236    0.172521    2.071139
H      0.576194    1.530263    1.734847
H      0.006593   -1.460673    1.336124
H      0.192456    0.192877   -1.069907
H      1.767504   -2.106498    0.014012
H      0.380144   -2.217177   -1.129533
H      1.604388   -0.848491   -2.786648
H      2.983807   -3.132823   -1.781983
H      4.222335   -1.914300   -0.202904
H      6.095577   -0.488002    0.442765
H      4.664381    2.597195   -2.214261
H      2.792877    1.168453   -2.865273
H     -1.541234    2.059340    1.123414
H     -1.402085    1.622599   -0.603051
H     -3.621260    2.621980   -0.124365
H     -5.239860    1.453393    1.399361
H     -3.778971    1.967366    2.299482
H     -4.406075   -0.395986    2.885745
H     -5.528233   -0.990223    0.718964
H     -4.265985   -2.192768    1.134705
H     -4.109807   -1.526292   -1.283762
H     -5.056464    0.790866   -1.063521
H     -3.464686    0.831055   -1.886163
H     -2.018185   -2.137622   -0.049055
H     -1.718433   -0.912824   -1.315372
H     -2.186682   -1.457403    2.428798
H     -2.021098    0.262014    2.905716
