41
Lipophilicity 717 2.819999933242798
C      5.636620   -1.123734    1.592288
O      4.746151   -1.248591    0.488132
C      3.472651   -0.660894    0.421753
C      2.956183    0.120780    1.471279
C      1.684532    0.691254    1.371476
N      1.200114    1.432964    2.399798
C     -0.028199    2.007062    2.358528
C     -0.850484    1.854746    1.231864
C     -2.165866    2.538753    1.191370
O     -2.596928    3.013311    0.106318
N     -2.957392    2.677491    2.373239
C     -0.379100    1.079353    0.145615
N     -1.204932    0.869085   -1.011995
C     -2.417004    0.090722   -0.989236
C     -2.761676   -0.694800    0.128770
C     -3.940990   -1.444682    0.129382
C     -4.784868   -1.424831   -0.982678
C     -4.450290   -0.656458   -2.100298
F     -5.272081   -0.641911   -3.178933
C     -3.270846    0.097163   -2.107491
F     -2.965488    0.841646   -3.200342
C      0.905494    0.495164    0.212115
C      1.421413   -0.293872   -0.832675
C      2.702778   -0.870527   -0.732073
O      3.246594   -1.660467   -1.758010
C      2.586110   -1.963031   -2.982810
H      5.171877   -1.547430    2.507546
H      5.897493   -0.056461    1.753788
H      6.566613   -1.687145    1.373188
H      3.533979    0.289181    2.370544
H     -0.347936    2.608812    3.198959
H     -2.682433    2.213797    3.267065
H     -3.862553    3.196835    2.338850
H     -0.864462    1.256146   -1.920947
H     -2.119873   -0.736859    0.998713
H     -4.199413   -2.044416    0.992570
H     -5.697181   -2.007332   -0.978439
H      0.829276   -0.464600   -1.720348
H      1.644008   -2.515818   -2.782422
H      3.247436   -2.602414   -3.602595
H      2.370673   -1.027992   -3.541858
