52
Lipophilicity 1411 4.400000095367432
O      2.904734   -2.139683   -1.372181
C      2.813929   -1.024734   -0.789391
N      1.790382   -0.806433    0.193474
C      1.048404   -1.875346    0.803854
C      1.721433   -3.021127    1.258209
C      1.029312   -4.022107    1.937172
C     -0.334910   -3.869129    2.170259
N     -0.979457   -2.758967    1.727415
C     -0.341665   -1.761146    1.052857
C     -1.150528   -0.619960    0.565123
O     -0.761285    0.058387   -0.424260
N     -2.404084   -0.307871    1.192701
C     -3.308941    0.719701    0.677169
C     -4.029812    0.235221   -0.602628
C     -4.980305   -0.955920   -0.323955
C     -6.430475   -0.498945   -0.082548
O     -6.458996    0.791576    0.490688
C     -6.076846    1.765691   -0.468086
C     -4.806323    1.386753   -1.267136
C      3.709601    0.080610   -1.194347
C      3.834530    0.357980   -2.565517
C      4.608799    1.429081   -3.009905
C      5.277815    2.239876   -2.095591
C      5.196234    1.972421   -0.722141
C      5.894486    2.778600    0.190858
C      5.847250    2.498155    1.556692
C      5.114366    1.407115    2.022397
C      4.410852    0.596449    1.128338
C      4.418926    0.877005   -0.255536
H      1.573558    0.176988    0.472735
H      2.789364   -3.124742    1.114133
H      1.549290   -4.902278    2.292551
H     -0.884433   -4.634290    2.702064
H     -2.661044   -0.784358    2.086583
H     -2.727622    1.644190    0.467850
H     -4.054570    0.971916    1.461530
H     -3.253209   -0.101029   -1.324351
H     -4.627529   -1.546907    0.548743
H     -4.971560   -1.643127   -1.198247
H     -6.924567   -1.209261    0.613536
H     -7.012253   -0.525898   -1.033538
H     -5.880379    2.714405    0.074683
H     -6.922349    1.962727   -1.163854
H     -5.112147    1.059387   -2.285593
H     -4.153112    2.277298   -1.398018
H      3.307115   -0.243468   -3.296276
H      4.683243    1.637032   -4.069601
H      5.869526    3.070029   -2.463090
H      6.483386    3.620766   -0.153023
H      6.391025    3.121106    2.255236
H      5.096863    1.183367    3.081350
H      3.883977   -0.257106    1.530766
