37
Lipophilicity 769 3.799999952316284
C      4.420099   -0.328891   -0.302983
C      3.526908   -1.249965   -1.126337
O      2.188824   -1.223570   -0.634216
C      1.308668   -0.158570   -0.852689
O      1.653618    0.814724   -1.576880
C     -0.031857   -0.172915   -0.234855
C     -0.800235    0.928681    0.147513
N     -2.016725    0.514188    0.576091
C     -1.959113   -0.826434    0.454548
C     -2.993284   -1.708397    0.760547
C     -2.773280   -3.083348    0.552424
C     -3.868136   -4.070280    0.827091
C     -1.544254   -3.520438    0.012275
C     -0.540188   -2.586427   -0.279140
N     -0.784725   -1.271482   -0.027932
C     -0.397609    2.350956    0.156953
C     -1.330995    3.341077   -0.192697
C     -0.971161    4.692139   -0.165117
C      0.317035    5.066214    0.225684
C      1.245165    4.090227    0.597176
C      0.889572    2.738178    0.570915
H      4.385937   -0.625486    0.766660
H      5.467314   -0.403597   -0.664256
H      4.084321    0.724790   -0.398927
H      3.912866   -2.287841   -1.044798
H      3.551663   -0.955808   -2.198153
H     -3.937812   -1.339674    1.141457
H     -4.515320   -3.716151    1.657632
H     -3.443242   -5.054508    1.118175
H     -4.487114   -4.198229   -0.085326
H     -1.370862   -4.570969   -0.185398
H      0.395082   -2.918520   -0.706395
H     -2.333654    3.067402   -0.497801
H     -1.692017    5.449360   -0.445257
H      0.593470    6.112411    0.248128
H      2.238354    4.381739    0.913566
H      1.612688    1.999416    0.892322
