30
Lipophilicity 572 1.159999966621399
N      5.704174   -0.756414    0.250135
C      4.325776   -0.397949    0.189158
N      3.961205    0.912566    0.235737
C      2.654872    1.288348    0.179485
N      2.318891    2.677224    0.232526
C      1.664490    0.302598    0.071564
N      0.342634    0.610398    0.019942
C     -0.613175   -0.354698   -0.078182
C     -0.209744   -1.710325   -0.154480
N     -1.147777   -2.772465   -0.355237
N      1.116678   -2.010020   -0.092463
C      2.059395   -1.041531    0.024728
N      3.375963   -1.365649    0.083009
C     -2.031006    0.061648   -0.082379
C     -2.457579    1.079468   -0.951432
C     -3.789093    1.506715   -0.937375
C     -4.699637    0.932994   -0.045963
C     -4.278586   -0.064193    0.837826
C     -2.948083   -0.494296    0.827014
H      6.439024   -0.019077    0.331090
H      5.991606   -1.759578    0.214440
H      3.073323    3.394449    0.313997
H      1.327278    3.001606    0.190649
H     -2.144187   -2.593190   -0.606275
H     -0.817804   -3.763058   -0.349442
H     -1.761810    1.535508   -1.645258
H     -4.114321    2.284753   -1.615878
H     -5.729424    1.265966   -0.035247
H     -4.981717   -0.499439    1.536129
H     -2.631364   -1.252359    1.532768
