61
Lipophilicity 1121 3.0899999141693115
C     -4.703358   -2.009079   -3.668445
O     -4.002136   -0.770424   -3.675503
C     -3.198691   -0.306135   -2.623453
C     -2.549511    0.920678   -2.780460
C     -1.734780    1.425385   -1.767926
C     -1.540524    0.701032   -0.583467
N     -0.699327    1.242668    0.456517
C      0.779359    1.216414    0.342195
C      1.368583    0.049564    1.099176
O      0.751762   -1.049584    1.149602
N      2.660744    0.175681    1.708418
C      3.375271   -0.981451    2.256100
C      4.633467   -0.570145    3.009818
C      5.549469   -1.776667    2.924528
C      5.217490   -2.457781    1.600911
C      3.863817   -1.910817    1.147248
C      1.272160    1.231643   -1.100045
C      1.283111    0.053997   -1.876890
C      1.700327    0.085096   -3.209379
C      2.106239    1.287271   -3.787561
C      2.090284    2.463282   -3.036543
C      1.672573    2.442273   -1.702223
F      1.647136    3.606837   -1.006611
C     -1.294695    1.683494    1.700475
O     -0.576288    1.786954    2.732389
C     -2.729425    2.024638    1.808068
O     -3.555374    2.125707    0.791484
C     -4.746264    2.439393    1.243777
C     -4.705480    2.553702    2.617857
C     -3.404193    2.288956    2.984224
C     -2.212624   -0.521019   -0.394754
O     -2.052981   -1.194163    0.825663
C     -2.676307   -2.430198    1.156409
C     -3.031571   -1.025523   -1.424643
H     -5.247956   -2.122831   -4.627120
H     -3.988018   -2.850995   -3.564687
H     -5.439945   -2.027685   -2.837970
H     -2.680318    1.489124   -3.692902
H     -1.254175    2.385768   -1.903424
H      1.166419    2.132957    0.838462
H      3.102806    1.122789    1.743237
H      2.710446   -1.541569    2.950379
H      4.408331   -0.304134    4.062519
H      5.127768    0.289216    2.509608
H      5.329075   -2.468242    3.767525
H      6.619229   -1.475906    2.970242
H      5.996511   -2.216496    0.844976
H      5.176078   -3.561270    1.729680
H      3.992729   -1.349328    0.196396
H      3.136859   -2.734913    0.978352
H      0.952889   -0.886931   -1.459457
H      1.702465   -0.823600   -3.796491
H      2.426852    1.309381   -4.821001
H      2.397650    3.395554   -3.492285
H     -5.617560    2.582963    0.619783
H     -5.527826    2.801563    3.274902
H     -3.000429    2.286728    3.988205
H     -2.389380   -2.712088    2.187590
H     -2.336145   -3.225744    0.461798
H     -3.781846   -2.327964    1.112947
H     -3.540776   -1.968023   -1.291822
