45
Lipophilicity 2016 3.4000000953674316
C     -4.610845    1.999781   -2.732810
O     -3.714441    1.650172   -1.685242
C     -3.695301    0.381795   -1.093423
N     -4.549807   -0.589174   -1.521934
C     -4.551776   -1.838076   -0.987910
C     -3.649207   -2.169688    0.029233
C     -3.671818   -3.532567    0.654558
C     -2.774880   -1.184096    0.503095
C     -2.783345    0.101603   -0.058858
C     -1.856858    1.141864    0.450972
C     -2.378333    2.351796    0.931288
C     -1.529001    3.344035    1.417105
C     -0.148475    3.142309    1.441944
C      0.406467    1.929561    0.983623
C      1.801148    1.685336    0.979963
N      2.725670    2.678464    1.451911
C      2.272736    0.458760    0.456147
N      1.378907   -0.434385   -0.042127
N      0.068042   -0.206903   -0.036950
C     -0.460244    0.935743    0.470641
C      3.701324    0.069440    0.471899
O      4.468507    0.499305    1.376011
N      4.205315   -0.848014   -0.508599
C      5.603994   -1.266235   -0.512895
C      5.918199   -2.316562    0.538833
C      5.813398   -2.712962   -0.925499
H     -4.431725    3.053729   -3.028623
H     -4.440516    1.344891   -3.613442
H     -5.660530    1.897185   -2.384899
H     -5.256485   -2.571524   -1.358192
H     -4.002866   -4.296087   -0.081284
H     -4.371883   -3.531923    1.515913
H     -2.658413   -3.815539    1.010932
H     -2.095365   -1.413889    1.315726
H     -3.447514    2.526115    0.933561
H     -1.943449    4.277470    1.775985
H      0.466359    3.950718    1.808391
H      3.664877    2.791274    1.011256
H      2.496694    3.305250    2.253239
H      3.593570   -1.139816   -1.304045
H      6.396055   -0.521521   -0.739675
H      5.058307   -2.648050    1.159917
H      6.958811   -2.282242    0.924606
H      6.791846   -2.913499   -1.410481
H      4.892850   -3.283840   -1.173251
