43
Lipophilicity 1866 2.0
C     -3.703589    2.435917    1.043499
O     -3.263916    1.227935    0.431682
C     -3.862115   -0.029524    0.621525
C     -4.996732   -0.187774    1.443551
C     -5.587616   -1.442322    1.603110
F     -6.678398   -1.581729    2.396300
C     -5.056155   -2.553044    0.949972
C     -3.931479   -2.414985    0.135307
C     -3.322617   -1.157520   -0.040169
C     -2.113997   -1.032618   -0.893812
C     -1.969973   -1.774352   -2.078021
N     -0.844108   -1.634192   -2.825064
C      0.152034   -0.790448   -2.451636
C      0.016716   -0.043136   -1.275232
C      1.100309    0.897202   -0.815954
N      1.784103    0.397781    0.387660
C      2.707406   -0.715631    0.103133
C      4.163719   -0.228063    0.086501
C      4.634493    0.264225    1.450987
C      5.548672    1.393994    1.096935
C      5.001521    1.866028   -0.233209
O      4.330735    0.800458   -0.865729
N     -1.111373   -0.186607   -0.529713
H     -3.043596    3.266331    0.719708
H     -3.646051    2.347007    2.148896
H     -4.743696    2.666197    0.730267
H     -5.432407    0.655702    1.961383
H     -5.511575   -3.526323    1.079866
H     -3.524185   -3.298808   -0.339123
H     -2.748746   -2.444074   -2.417763
H      1.038256   -0.704135   -3.066485
H      1.833450    1.091683   -1.629389
H      0.633269    1.875537   -0.574515
H      1.070793    0.088588    1.089533
H      2.606326   -1.498077    0.888545
H      2.479733   -1.211685   -0.866061
H      4.809014   -1.082258   -0.218581
H      3.791199    0.650480    2.065520
H      5.168149   -0.532180    2.014458
H      6.587513    1.016725    0.967854
H      5.529603    2.199796    1.862783
H      5.824420    2.230564   -0.883916
H      4.280889    2.697334   -0.072437
