56
Lipophilicity 986 2.6600000858306885
C      4.967861    0.668152    1.193028
C      6.484633    0.488387    1.135817
N      6.870526   -0.420133    0.037722
C      8.317797   -0.403897   -0.183933
C      8.668492   -1.727760   -0.837374
C      7.560754   -2.680542   -0.421209
C      6.537202   -1.823635    0.313247
O      4.488958    1.128357   -0.068542
C      3.141393    1.385165   -0.359539
C      2.810649    1.818256   -1.648102
C      1.481686    2.085682   -1.988351
C      0.457545    1.907816   -1.047709
N     -0.898461    2.213323   -1.414834
C     -2.045857    1.501367   -0.929990
N     -1.907461    0.302941   -0.297967
C     -2.987319   -0.393951    0.140930
C     -4.272969    0.115334   -0.063463
C     -5.416069   -0.569561    0.371634
C     -6.696511   -0.030373    0.142358
C     -6.809723    1.202362   -0.529217
C     -5.669203    1.885364   -0.962438
C     -4.400639    1.347258   -0.731698
N     -3.289238    2.006647   -1.151002
C     -7.910900   -0.751564    0.602145
C     -7.933268   -1.392826    1.852810
C     -9.086134   -2.065049    2.265661
N    -10.180957   -2.100069    1.461600
C    -10.191476   -1.490878    0.247053
C     -9.060660   -0.806281   -0.204637
C      0.789341    1.495378    0.254579
C      2.118902    1.228273    0.595018
H      4.724179    1.414813    1.979549
H      4.483080   -0.297236    1.453468
H      6.855220    0.118269    2.118622
H      6.936682    1.491088    0.964259
H      8.874704   -0.316691    0.778473
H      8.594442    0.445866   -0.844560
H      8.673966   -1.612262   -1.943643
H      9.664633   -2.089644   -0.501021
H      7.955893   -3.476570    0.247712
H      7.102357   -3.153908   -1.317204
H      5.512574   -2.046221   -0.054690
H      6.586138   -2.053511    1.402528
H      3.588644    1.949750   -2.389506
H      1.247385    2.422099   -2.990571
H     -1.058493    2.948972   -2.140098
H     -2.839354   -1.341246    0.644201
H     -5.309719   -1.526132    0.869884
H     -7.781109    1.647665   -0.703708
H     -5.774684    2.834404   -1.473516
H     -7.075237   -1.359913    2.512359
H     -9.111090   -2.556970    3.228824
H    -11.077916   -1.540392   -0.371091
H     -9.079506   -0.340344   -1.181761
H      0.027004    1.403875    1.016733
H      2.341310    0.910698    1.604505
