30
Lipophilicity 1549 0.20000000298023224
C      4.997381    0.240674   -0.681863
O      3.975392   -0.743869   -0.565139
C      2.693739   -0.497517   -0.050861
C      1.784356   -1.559508    0.005856
C      0.495037   -1.365223    0.508911
C      0.094823   -0.100023    0.966847
C     -1.303723    0.112705    1.484149
C     -2.281718    0.190826    0.345450
C     -2.565953    1.278556   -0.466308
N     -2.033353    2.595252   -0.328452
N     -3.435612    0.930487   -1.435919
N     -3.714335   -0.353562   -1.274525
C     -3.032316   -0.827020   -0.216108
N     -3.101045   -2.182581    0.228180
C      1.004880    0.967618    0.909907
C      2.294579    0.772576    0.406640
H      4.662607    1.060991   -1.351376
H      5.903255   -0.227137   -1.118778
H      5.254035    0.645229    0.319982
H      2.078609   -2.541149   -0.343443
H     -0.190132   -2.201962    0.540092
H     -1.578321   -0.715748    2.169960
H     -1.363287    1.044963    2.085609
H     -1.392521    2.839452    0.457085
H     -2.302233    3.340215   -1.008425
H     -4.362066   -0.896071   -1.887750
H     -3.694941   -2.870211   -0.285698
H     -2.580014   -2.504505    1.072388
H      0.720599    1.951750    1.259291
H      2.972277    1.614790    0.377671
