29
Lipophilicity 1873 2.700000047683716
C     -3.178039   -1.813832    0.272731
C     -2.774765   -0.367139    0.149729
C     -3.768883    0.619964    0.106120
C     -3.400183    1.961828   -0.008370
O     -4.286007    2.855303   -0.048806
O     -2.119342    2.304624   -0.074721
C     -1.134303    1.412750   -0.037787
C      0.190135    1.853255   -0.109413
C      1.246624    0.935794   -0.069295
N      2.603913    1.397698   -0.153688
C      3.730597    0.484192    0.023683
C      3.388972   -0.895625   -0.542775
C      2.107626   -1.438634    0.101971
C      0.974939   -0.443513    0.021065
C     -0.352776   -0.888227    0.110007
C     -1.420067    0.031007    0.075163
H     -4.281946   -1.930618    0.315288
H     -2.807086   -2.383549   -0.605093
H     -2.751963   -2.245089    1.202902
H     -4.818117    0.353702    0.159927
H      0.396911    2.913263   -0.193076
H      2.800996    2.416541   -0.277859
H      3.963701    0.397853    1.106932
H      4.624783    0.889349   -0.496755
H      4.229097   -1.596491   -0.348168
H      3.247782   -0.818605   -1.643377
H      1.824184   -2.382707   -0.412349
H      2.301740   -1.672817    1.171048
H     -0.538523   -1.950277    0.204966
