61
Lipophilicity 159 0.46000000834465027
O     -1.287860    2.283104   -2.696570
C     -0.400591    2.269820   -1.607409
C      0.449704    0.986320   -1.616158
N      1.379489    0.980676   -0.464697
C      2.274383   -0.197510   -0.510789
C      3.467072    0.068334   -1.440136
N      4.512699   -0.964294   -1.257976
C      4.517789   -2.049215   -2.107861
O      3.627615   -2.182473   -2.992116
C      5.507716   -3.028115   -2.016529
C      6.490853   -2.927944   -1.044166
C      6.477689   -1.859360   -0.147664
C      7.461092   -1.772404    0.848871
C      7.460680   -0.710338    1.748096
C      6.466171    0.266607    1.678640
C      5.470024    0.187797    0.696312
C      5.463896   -0.868156   -0.252809
C      6.473009    1.359764    2.618377
N      6.483810    2.240567    3.370722
C      0.619947    1.001589    0.803066
C     -0.218696    2.282244    0.905621
C     -1.187097    2.406135   -0.280682
N     -2.256766    1.387409   -0.139430
C     -3.542573    1.998130    0.225885
C     -4.537138    0.928148    0.569623
C     -5.642309    0.675212   -0.260490
C     -6.554726   -0.314717    0.108509
O     -7.699699   -0.559166   -0.657075
C     -8.775226   -1.344730   -0.137767
C     -8.224519   -2.536075    0.662312
O     -7.231025   -2.095265    1.594460
C     -6.334001   -1.073866    1.263254
C     -5.226976   -0.794810    2.066179
N     -4.361473    0.190903    1.704393
H     -0.741959    2.439944   -3.509995
H      0.286047    3.146786   -1.687717
H      1.023578    0.968974   -2.568462
H     -0.206555    0.084997   -1.604438
H      1.730969   -1.109947   -0.844697
H      2.676346   -0.422821    0.501755
H      3.882704    1.083776   -1.280862
H      3.116567    0.093307   -2.492814
H      5.515702   -3.865432   -2.705567
H      7.256370   -3.693233   -0.985818
H      8.235191   -2.525562    0.931111
H      8.233915   -0.654354    2.504263
H      4.707950    0.954210    0.703931
H      1.322210    0.996510    1.666102
H     -0.035901    0.104108    0.887004
H      0.462940    3.160617    0.925708
H     -0.789206    2.277098    1.859872
H     -1.607995    3.440040   -0.264522
H     -2.392807    0.841285   -1.025239
H     -3.914629    2.630633   -0.614598
H     -3.416075    2.651200    1.121295
H     -5.805701    1.248655   -1.165884
H     -9.411713   -1.701646   -0.976676
H     -9.393259   -0.710997    0.535450
H     -7.762998   -3.264522   -0.042101
H     -9.046063   -3.042760    1.211635
H     -5.048590   -1.365189    2.968474
