68
Lipophilicity 1480 2.490000009536743
C     -2.481786   -2.383194    3.060734
C     -2.954200   -2.750231    1.649445
C     -3.945345   -3.939820    1.717691
O     -4.894508   -3.890287    0.681089
C     -5.708392   -2.757227    0.873482
C     -4.926386   -1.493739    0.533435
N     -3.521609   -1.561754    0.973925
C     -2.641437   -0.490436    0.560039
N     -3.160784    0.680350    0.097357
C     -2.369684    1.682600   -0.362863
N     -2.976753    2.902124   -0.815877
C     -2.974464    4.040074    0.115694
C     -3.416853    5.346093   -0.546999
O     -2.988971    5.389500   -1.892326
C     -3.740707    4.455308   -2.631402
C     -3.377756    3.007734   -2.230490
C     -4.553210    2.068820   -2.529676
C     -0.973423    1.510422   -0.369996
C     -0.089545    2.471843   -0.876358
C      1.285607    2.240679   -0.834210
C      1.780280    1.048359   -0.269238
N      0.895721    0.115295    0.188115
C     -0.449204    0.309586    0.142289
N     -1.289094   -0.659106    0.582842
C      3.241028    0.784180   -0.171038
C      4.165730    1.841743   -0.088785
C      5.532125    1.580390    0.007189
C      5.998481    0.268006    0.027871
C      5.099540   -0.809001   -0.044605
C      3.720803   -0.540635   -0.130419
C      5.585695   -2.209682    0.002916
O      4.800681   -3.125022    0.373002
N      6.931976   -2.540748   -0.372268
C      7.517421   -3.854648   -0.121361
C      7.772318   -4.060371    1.373090
O      8.593729   -3.043617    1.883711
H     -2.021888   -3.263239    3.552727
H     -1.730883   -1.572900    3.030289
H     -3.337721   -2.039985    3.674845
H     -2.069858   -3.094238    1.066993
H     -3.374354   -4.885228    1.612845
H     -4.451610   -4.008623    2.706218
H     -6.113588   -2.700493    1.907594
H     -6.586719   -2.831253    0.202952
H     -5.427488   -0.618453    1.003206
H     -4.946349   -1.356967   -0.571482
H     -1.947344    4.185326    0.515370
H     -3.645724    3.815036    0.968179
H     -2.953950    6.200134   -0.001111
H     -4.521875    5.479776   -0.457319
H     -3.501800    4.593701   -3.709634
H     -4.838909    4.657241   -2.539217
H     -2.514042    2.691137   -2.862424
H     -5.407135    2.303495   -1.865302
H     -4.254293    1.011446   -2.376793
H     -4.875664    2.190741   -3.579699
H     -0.455388    3.391554   -1.315213
H      1.948370    2.983661   -1.258582
H      3.838557    2.873656   -0.060572
H      6.237863    2.399292    0.093723
H      7.062086    0.105844    0.131636
H      3.022008   -1.367314   -0.189270
H      7.495761   -1.860842   -0.925306
H      6.841041   -4.651535   -0.500774
H      8.480097   -3.937224   -0.671820
H      6.810564   -4.050924    1.926437
H      8.243343   -5.053978    1.537064
H      9.509871   -3.222433    1.544050
