64
Lipophilicity 376 1.2799999713897705
C     -7.582226   -2.305500    1.234663
C     -7.935136   -0.916013    1.790506
C     -8.361798   -1.017463    3.258162
N     -6.850219    0.092932    1.652124
C     -5.481623   -0.297159    2.051748
C     -4.624359   -0.781574    0.864284
N     -4.676315    0.128339   -0.298993
C     -3.885515    1.365405   -0.113381
C     -2.415558    1.075127   -0.259818
C     -1.562425    1.104001    0.849780
N     -0.241618    0.823865    0.702876
C      0.309388    0.509755   -0.502326
C      1.761909    0.228239   -0.557177
C      2.588793    0.870937   -1.492036
C      3.963668    0.618254   -1.514076
C      4.539786   -0.271123   -0.590128
C      3.709712   -0.910333    0.346004
C      2.336087   -0.653262    0.370113
C      5.993886   -0.554142   -0.600208
O      6.398605   -1.693055   -0.240123
N      6.941835    0.446105   -1.014904
C      8.364754    0.242116   -0.988579
C      8.977134   -0.310452    0.151472
C     10.364284   -0.461021    0.209684
C     11.157219   -0.049985   -0.861304
C     10.565331    0.514113   -1.994570
C      9.171524    0.665100   -2.070143
N      8.591786    1.219616   -3.258789
C     -0.521223    0.445489   -1.643757
C     -1.884011    0.733762   -1.509407
C     -0.021921    0.031430   -2.933180
N      0.377344   -0.301314   -3.966719
C     -6.068881    0.397430   -0.701859
C     -6.907385    0.954711    0.455275
H     -6.758272   -2.778593    1.807181
H     -8.467666   -2.972001    1.308456
H     -7.307676   -2.244954    0.165100
H     -8.838793   -0.573061    1.239684
H     -9.262198   -1.661097    3.351363
H     -7.553528   -1.450075    3.882909
H     -8.614306   -0.008640    3.647337
H     -4.990658    0.577206    2.526556
H     -5.500659   -1.084508    2.833647
H     -3.575926   -0.914582    1.206637
H     -4.960099   -1.788553    0.543981
H     -4.150202    2.117477   -0.889213
H     -4.098920    1.843562    0.865832
H     -1.946209    1.344809    1.832830
H      2.173188    1.578447   -2.198189
H      4.565560    1.106005   -2.268715
H      4.126760   -1.597942    1.070849
H      1.717578   -1.151316    1.106772
H      6.594808    1.379670   -1.327457
H      8.382632   -0.603025    1.007025
H     10.825948   -0.888901    1.091773
H     12.232393   -0.165067   -0.813087
H     11.193739    0.828830   -2.818422
H      7.559900    1.245873   -3.409146
H      9.202143    1.590652   -4.022207
H     -2.536536    0.682138   -2.374054
H     -6.094506    1.111971   -1.553482
H     -6.528547   -0.536509   -1.082618
H     -6.529716    1.963644    0.726138
H     -7.953061    1.104210    0.110992
