17
Lipophilicity 1310 1.090000033378601
N      2.750668   -0.817969    0.606538
C      1.929071    0.189894    0.011643
O      2.476057    1.227995   -0.448465
C      0.455386    0.030293   -0.068722
C     -0.109668   -1.255504   -0.170220
C     -1.494472   -1.418774   -0.258743
C     -2.333244   -0.304417   -0.251182
C     -1.789918    0.977615   -0.156593
C     -0.401048    1.154847   -0.064552
O      0.122441    2.443396    0.045048
H      3.789452   -0.711865    0.605802
H      2.336837   -1.629958    1.114888
H      0.516799   -2.137060   -0.206798
H     -1.917379   -2.411825   -0.340363
H     -3.405552   -0.433963   -0.321453
H     -2.450118    1.835638   -0.151164
H     -0.475312    3.261658    0.054335
