82
Lipophilicity 774 2.509999990463257
C      7.024480   -2.049732   -0.510372
C      5.783842   -1.708777    0.309272
C      4.767270   -0.925971   -0.529634
C      3.567944   -0.525287    0.296657
O      2.920959   -1.402359    0.851914
C      3.149928    0.947336    0.417246
C      2.716699    1.479066   -0.967903
C      1.587440    0.649905   -1.579292
N      0.521106    0.291186   -0.626770
C      0.611177    0.512527    0.831818
C      1.923413    1.145627    1.338924
C     -0.605289   -0.445490   -1.165167
O     -0.516147   -0.960812   -2.314787
C     -1.923908   -0.581918   -0.430576
C     -3.027038    0.224306   -1.137874
C     -2.713963    1.700074   -1.151944
C     -2.962366    2.486514   -0.017997
C     -2.638452    3.846898   -0.015760
C     -2.054293    4.439198   -1.151685
O     -1.722442    5.800899   -1.206174
C     -1.956380    6.728239   -0.151301
C     -1.793072    3.647662   -2.274720
C     -2.116990    2.288845   -2.276658
N     -2.304435   -1.996109   -0.383017
C     -2.183421   -2.796040    0.804348
O     -1.649893   -2.308699    1.839135
C     -2.642494   -4.241097    0.804816
N     -2.611189   -4.841537    2.143482
C     -4.030244   -4.453995    0.156850
C     -5.182361   -3.617093    0.677030
C     -5.190270   -2.668931    1.688107
N     -6.428429   -2.146392    1.806467
C     -7.156758   -2.784608    0.868462
N     -6.430274   -3.680159    0.173556
C     -6.904237   -4.518045   -0.924151
C      4.329486    1.733456    1.025336
C      4.887424    2.884399    0.418345
C      5.958588    3.558024    1.012773
C      6.490845    3.106310    2.219830
C      5.950059    1.981766    2.841058
C      4.878896    1.304073    2.254632
H      7.546024   -1.120226   -0.825970
H      7.724061   -2.654218    0.106273
H      6.745463   -2.637693   -1.411143
H      6.093770   -1.105758    1.190447
H      5.323091   -2.652203    0.673679
H      5.263191   -0.024684   -0.948852
H      4.420344   -1.551759   -1.380560
H      2.359604    2.529864   -0.879504
H      3.570265    1.476997   -1.679425
H      2.018373   -0.281607   -2.008039
H      1.146823    1.232130   -2.418596
H      0.476912   -0.463677    1.345296
H     -0.218620    1.179164    1.152782
H      2.134237    0.747716    2.354934
H      1.749981    2.238078    1.469934
H     -1.861081   -0.190928    0.602511
H     -3.167762   -0.149464   -2.176322
H     -3.991948    0.063014   -0.608497
H     -3.403371    2.043678    0.866410
H     -2.843290    4.427248    0.872879
H     -1.386163    6.429120    0.753226
H     -1.615229    7.733927   -0.470508
H     -3.041466    6.780191    0.079375
H     -1.338685    4.089233   -3.152555
H     -1.899318    1.695164   -3.155292
H     -2.590820   -2.457326   -1.275794
H     -1.914180   -4.799201    0.175088
H     -3.158287   -4.258160    2.815566
H     -1.620523   -4.868084    2.480374
H     -3.946811   -4.281418   -0.937431
H     -4.306508   -5.524164    0.275253
H     -4.360605   -2.356275    2.302841
H     -8.207568   -2.590784    0.695517
H     -7.996235   -4.381118   -1.075499
H     -6.709082   -5.585529   -0.692266
H     -6.374930   -4.242194   -1.860157
H      4.513057    3.278027   -0.514311
H      6.378691    4.432457    0.533034
H      7.321141    3.630242    2.675314
H      6.360507    1.634691    3.780817
H      4.481734    0.432268    2.758720
