54
Lipophilicity 1354 2.859999895095825
C     -3.579065    0.317145   -2.037121
C     -4.523323   -0.602995   -1.251239
C     -3.856779   -1.928291   -0.873384
N     -5.102475    0.058628   -0.062519
C     -6.403477    0.001192    0.322587
C     -7.470949   -0.767977   -0.392774
N     -6.667476    0.740995    1.419880
C     -5.481756    1.279316    1.754587
C     -4.517936    0.858097    0.864611
C     -3.093897    1.229748    0.949874
N     -2.143321    0.259894    0.991343
C     -0.821597    0.563317    1.084126
N      0.144304   -0.495699    1.135287
C      1.557751   -0.307953    0.952493
C      2.454190   -1.114975    1.661998
C      3.830646   -0.965413    1.489438
C      4.338282   -0.022577    0.583553
C      5.804409    0.124900    0.450382
O      6.323779    1.249077    0.689771
N      6.642165   -0.982816    0.059296
C      6.063975   -2.155843   -0.605580
C      8.092237   -0.881016    0.244502
C      3.441897    0.777745   -0.162927
C      3.940354    1.792341   -1.158517
C      2.057755    0.626400    0.029983
N     -0.435738    1.865041    1.174992
C     -1.349045    2.869038    1.154581
C     -2.706815    2.573055    1.044713
F     -3.621232    3.575493    1.013515
H     -2.586044    0.404054   -1.555035
H     -4.028140    1.327991   -2.138586
H     -3.417798   -0.095226   -3.056091
H     -5.344625   -0.851355   -1.957703
H     -4.581331   -2.573339   -0.333155
H     -3.529457   -2.462956   -1.790484
H     -2.973674   -1.771619   -0.225805
H     -7.146732   -1.819108   -0.539463
H     -7.673606   -0.298426   -1.377625
H     -8.408073   -0.767980    0.202652
H     -5.328764    1.926867    2.607883
H     -0.198881   -1.451123    1.384693
H      2.084063   -1.850329    2.365346
H      4.504188   -1.579162    2.075245
H      5.409862   -1.830327   -1.441997
H      6.850763   -2.815681   -1.027150
H      5.469309   -2.749128    0.118109
H      8.611694   -1.813972   -0.060192
H      8.319127   -0.695981    1.315653
H      8.490982   -0.041600   -0.363953
H      3.123702    2.146873   -1.822889
H      4.726299    1.343999   -1.802272
H      4.359856    2.667536   -0.619825
H      1.369922    1.217137   -0.561198
H     -1.019505    3.896987    1.224833
