38
Lipophilicity 1247 1.9500000476837158
C      5.265806   -0.192352   -1.486127
C      4.522920    0.607890   -0.416843
N      3.126106    0.145163   -0.272523
C      2.341155    1.116112    0.514549
C      0.850775    0.771124    0.406634
N      0.650227   -0.684206    0.445831
C      1.715169   -1.519012    1.009668
C      3.060540   -1.218506    0.318576
C     -0.449705   -1.287354   -0.261659
O     -0.262064   -2.348617   -0.916440
C     -1.794321   -0.681525   -0.257023
C     -2.764410   -0.894690   -1.235405
C     -3.860665   -0.176182   -0.812110
C     -5.120867   -0.022041   -1.386163
C     -6.059439    0.773278   -0.703021
C     -5.720424    1.384776    0.524918
C     -4.439496    1.207243    1.079931
C     -3.529365    0.418630    0.377181
N     -2.269945    0.114618    0.731263
H      4.686119   -0.194471   -2.433546
H      6.257478    0.270380   -1.674971
H      5.430059   -1.237785   -1.151536
H      5.068715    0.546612    0.551571
H      4.539839    1.671559   -0.743539
H      2.482594    2.149801    0.127527
H      2.661514    1.102258    1.581564
H      0.467397    1.173564   -0.557268
H      0.301067    1.256933    1.238353
H      1.474776   -2.601702    0.928433
H      1.804059   -1.289031    2.093902
H      3.196594   -1.958454   -0.499176
H      3.875294   -1.382408    1.059867
H     -2.678796   -1.495141   -2.131911
H     -5.371932   -0.499143   -2.324771
H     -7.048057    0.915210   -1.119732
H     -6.450951    1.992312    1.042978
H     -4.170875    1.668879    2.021294
H     -1.786891    0.396277    1.612374
