24
Lipophilicity 1814 2.5999999046325684
O      1.146470    3.281312   -0.623650
C      0.594716    2.164584   -0.423569
C     -0.861712    2.053417   -0.509364
O     -1.548853    3.075587   -0.782403
C     -1.511291    0.747761   -0.275795
C     -2.912350    0.644497   -0.359119
C     -3.547107   -0.575617   -0.142936
C     -2.795329   -1.706004    0.158378
C     -1.404443   -1.624731    0.245691
C     -0.729674   -0.398352    0.031192
C      0.772844   -0.283671    0.119688
C      1.595636   -1.395749    0.422381
C      2.983385   -1.264934    0.498755
C      3.585518   -0.031212    0.277167
C      2.803145    1.080740   -0.022473
C      1.402547    0.970167   -0.104153
H     -3.520264    1.509833   -0.592262
H     -4.625319   -0.644703   -0.209297
H     -3.292502   -2.653030    0.325825
H     -0.886004   -2.537926    0.482403
H      1.197237   -2.378926    0.605076
H      3.595091   -2.127323    0.731516
H      4.662067    0.064164    0.337693
H      3.296192    2.030115   -0.190743
