52
Lipophilicity 1614 3.5999999046325684
C     -9.912608    1.547601   -0.125343
C     -9.336289    0.513857    0.838376
O     -8.382489   -0.319581    0.177399
C     -7.072751    0.054691   -0.167833
C     -6.505255    1.287144    0.213169
C     -5.199507    1.607687   -0.166865
C     -4.443697    0.705602   -0.916993
C     -4.985084   -0.540703   -1.284698
N     -4.238134   -1.482367   -2.074638
C     -2.815964   -1.638902   -1.996718
O     -2.049209   -1.061898   -1.104407
C     -0.840286   -1.489212   -1.381157
N     -0.846591   -2.332418   -2.433514
N     -2.107777   -2.431016   -2.824690
C      0.363094   -1.091637   -0.639250
O      0.246793   -0.298567    0.333897
N      1.649014   -1.625132   -0.996234
C      2.895264   -1.117157   -0.486963
C      3.085312    0.247994   -0.225797
C      4.312329    0.706214    0.257019
C      5.363807   -0.204576    0.464784
N      5.157647   -1.521929    0.183012
C      3.971758   -1.989920   -0.289127
N      6.645135    0.223106    0.979227
C      7.065381    1.628465    0.883608
C      8.592689    1.736230    0.934453
O      9.112107    1.025383    2.040617
C      8.867043   -0.357351    1.871344
C      7.364986   -0.649921    1.919680
C     -6.305545   -0.847104   -0.917542
H    -10.677765    2.157508    0.399421
H    -10.387852    1.038597   -0.990358
H     -9.117566    2.223958   -0.500115
H     -8.885961    1.004098    1.729545
H    -10.166924   -0.127618    1.200070
H     -7.061888    2.008003    0.793277
H     -4.775935    2.564347    0.112263
H     -3.452235    0.998698   -1.234397
H     -4.763863   -2.167106   -2.665674
H      1.676957   -2.490838   -1.582422
H      2.295277    0.964118   -0.409588
H      4.425965    1.758977    0.477504
H      3.863077   -3.045806   -0.495101
H      6.624834    2.200469    1.728325
H      6.718945    2.072850   -0.074269
H      8.869436    2.807651    1.040705
H      9.042096    1.379274   -0.021591
H      9.307261   -0.734105    0.918328
H      9.363998   -0.909183    2.697529
H      6.982475   -0.468611    2.949044
H      7.208145   -1.723324    1.675095
H     -6.739649   -1.796540   -1.210937
