67
Lipophilicity 406 2.119999885559082
C      0.792299   -4.709608    0.415796
C      1.200427   -3.272160    0.595331
C      2.547394   -2.945416    0.822793
C      2.939876   -1.611244    0.958057
C      1.995147   -0.579712    0.850539
C      0.642639   -0.905988    0.676194
C      0.242317   -2.241218    0.528785
N     -1.129897   -2.536945    0.245574
C     -2.174415   -2.226989    1.176017
O     -1.898248   -2.022736    2.388829
C     -3.605519   -2.148614    0.714913
C     -4.046962   -0.720313    0.293555
C     -5.541275   -0.767276   -0.137163
C     -6.023489    0.636974   -0.560978
C     -5.171766    1.135676   -1.749071
C     -3.688708    1.204389   -1.328752
C     -3.536553    2.179094   -0.139751
C     -4.389563    1.684710    1.049140
C     -5.871703    1.612819    0.626805
C     -3.907084    0.282587    1.477292
C     -3.206897   -0.202147   -0.909891
C      2.404475    0.839859    0.920259
O      1.659981    1.650161    1.541188
N      3.601106    1.326560    0.273171
C      3.967117    0.810563   -1.056369
C      5.435118    1.138568   -1.378458
C      6.432625    0.295529   -0.536992
N      7.346547    1.167311    0.208171
C      6.581560    2.115340    1.025877
C      5.541681    2.874936    0.156725
C      4.091442    2.663583    0.636316
O      5.664286    2.527706   -1.212811
H      0.499644   -4.882983   -0.642538
H      1.621204   -5.405149    0.673305
H     -0.070980   -4.944886    1.075608
H      3.298496   -3.723272    0.889077
H      3.981972   -1.384880    1.136958
H     -0.096362   -0.117451    0.603565
H     -1.371300   -2.913312   -0.697661
H     -4.263531   -2.512058    1.536412
H     -3.747100   -2.849976   -0.136611
H     -6.171419   -1.135011    0.703415
H     -5.678508   -1.475159   -0.985870
H     -7.092059    0.585268   -0.865417
H     -5.290249    0.448748   -2.616365
H     -5.521252    2.142324   -2.070400
H     -3.077228    1.566222   -2.183807
H     -3.858726    3.200526   -0.441013
H     -2.468390    2.245884    0.161209
H     -4.280769    2.389419    1.902631
H     -6.231088    2.626375    0.338832
H     -6.495372    1.270110    1.482783
H     -4.502228   -0.066784    2.351596
H     -2.848307    0.358824    1.804621
H     -3.298908   -0.900045   -1.770927
H     -2.130242   -0.148122   -0.644778
H      3.815071   -0.285404   -1.133013
H      3.311787    1.287441   -1.819298
H      5.601448    0.895772   -2.451609
H      7.031631   -0.351441   -1.215532
H      5.903835   -0.380547    0.171418
H      7.916140    0.567933    0.850220
H      6.095818    1.580119    1.875948
H      7.290484    2.852275    1.465578
H      5.756272    3.963978    0.243441
H      3.442432    3.427768    0.153309
H      4.033824    2.811496    1.738316
