48
Lipophilicity 919 1.6399999856948853
C      6.394303    0.080260    0.721780
O      5.128013   -0.485508    1.044297
C      3.971372   -0.339153    0.263556
C      3.959259    0.391144   -0.933843
C      2.777880    0.524983   -1.671778
O      2.781511    1.274776   -2.849380
C      1.585271   -0.077573   -1.223853
C      0.362694    0.139873   -2.029982
O      0.303156   -0.383123   -3.173761
O     -0.698133    0.963169   -1.621509
C     -0.856964    1.576289   -0.339260
C      0.151450    2.717175   -0.151717
C     -2.305909    2.105511   -0.227421
C     -2.868246    1.891032    1.152618
C     -3.772618    0.954533    1.475677
C     -4.356775   -0.022162    0.532517
O     -5.559478    0.126931    0.189570
C     -3.585547   -1.211008   -0.007015
O     -2.856531   -0.828516   -1.141564
C     -2.653193   -1.845028    1.058199
O     -3.433634   -2.507401    2.021451
C     -1.673431   -2.868981    0.440735
C     -0.488537   -2.203153   -0.209098
C      0.420234   -1.552294    0.525003
C      1.603341   -0.856883   -0.034922
C      2.794990   -0.949061    0.702511
H      6.754760   -0.319189   -0.249679
H      6.317422    1.187157    0.675747
H      7.124677   -0.192467    1.510776
H      4.859159    0.868856   -1.296572
H      3.622280    1.724853   -3.192035
H     -0.684392    0.817915    0.450062
H      1.184617    2.323638   -0.084307
H     -0.061387    3.264079    0.791524
H      0.093452    3.427169   -1.004053
H     -2.959459    1.639998   -0.992280
H     -2.345074    3.193709   -0.452268
H     -2.508014    2.542536    1.939484
H     -4.144751    0.937278    2.492206
H     -4.319143   -1.998346   -0.304339
H     -3.507910   -0.725386   -1.884143
H     -2.052563   -1.051903    1.560157
H     -3.769275   -1.817534    2.651560
H     -2.203332   -3.496927   -0.308196
H     -1.298308   -3.552968    1.233804
H     -0.370103   -2.294499   -1.280290
H      0.324737   -1.575626    1.605075
H      2.818130   -1.518174    1.624955
