77
Lipophilicity 978 2.5999999046325684
C      6.559868    5.301203    3.309455
C      5.589460    4.324071    2.649012
C      6.249292    2.956874    2.402577
N      5.241268    1.962434    1.975602
C      4.968359    2.050769    0.527116
C      3.694653    1.258123    0.185391
C      3.482903    0.064404    1.148995
C      4.810903   -0.508348    1.667978
C      5.675219    0.587840    2.332437
O      2.643703   -0.951042    0.585716
C      2.888496   -1.672578   -0.592351
N      4.051229   -1.534476   -1.286478
C      4.255649   -2.208086   -2.447990
C      3.263107   -3.046526   -2.953172
C      2.073725   -3.188093   -2.228957
N      1.027444   -4.043088   -2.720718
C     -0.249165   -4.218430   -2.071206
C     -0.925161   -3.116720   -1.513782
C     -2.165493   -3.271376   -0.877766
N     -2.785738   -2.125032   -0.262684
C     -3.696834   -2.194918    0.849610
O     -3.769422   -3.254697    1.534040
C     -4.521097   -1.021872    1.242714
C     -5.108175   -0.976463    2.516586
C     -5.893400    0.110253    2.894045
C     -6.098479    1.172960    2.011669
C     -5.508619    1.176788    0.725674
C     -4.738817    0.047958    0.353563
N     -5.683156    2.304691   -0.191457
C     -4.920159    2.332601   -1.457309
C     -5.043946    3.660085   -2.203536
O     -6.380253    4.104849   -2.193375
C     -6.700227    4.512064   -0.883242
C     -6.711699    3.326910    0.095908
C     -2.789383   -4.528738   -0.899405
C     -2.144412   -5.625086   -1.471964
C     -0.865844   -5.490573   -2.036723
C     -0.191411   -6.699990   -2.629366
N      1.925008   -2.508102   -1.059116
H      7.473274    5.420065    2.684792
H      6.071485    6.293856    3.420244
H      6.850485    4.935436    4.318305
H      4.702950    4.198288    3.311025
H      5.250704    4.764687    1.686979
H      6.720003    2.633120    3.359724
H      7.063268    3.050436    1.648887
H      4.816096    3.106903    0.207350
H      5.830514    1.645974   -0.051587
H      3.754042    0.933058   -0.873323
H      2.814724    1.932009    0.261113
H      2.944805    0.458077    2.041335
H      5.386974   -0.964791    0.833179
H      4.599849   -1.314263    2.404100
H      5.596793    0.469358    3.433615
H      6.743909    0.428167    2.051886
H      5.184655   -2.087282   -2.984593
H      3.416667   -3.573646   -3.887293
H      1.226626   -4.614051   -3.572817
H     -0.494286   -2.126812   -1.577562
H     -2.429670   -1.181865   -0.541566
H     -4.959005   -1.780546    3.225121
H     -6.348471    0.130705    3.875801
H     -6.723221    1.983227    2.357100
H     -4.329197   -0.021046   -0.641044
H     -5.292059    1.521533   -2.120797
H     -3.839485    2.162687   -1.250090
H     -4.345671    4.418789   -1.774856
H     -4.733801    3.508365   -3.258436
H     -6.005858    5.311462   -0.524702
H     -7.712763    4.969189   -0.898082
H     -7.715570    2.842618    0.070309
H     -6.542838    3.756025    1.106740
H     -3.782418   -4.665715   -0.497999
H     -2.648371   -6.583661   -1.472329
H     -0.276474   -6.663430   -3.736927
H      0.880374   -6.727226   -2.334891
H     -0.658435   -7.640343   -2.263955
