41
Lipophilicity 267 1.649999976158142
C      0.307172   -3.555445   -0.321168
C     -0.057803   -2.067906   -0.285526
C     -1.588354   -1.882253   -0.204735
N     -1.945018   -0.450879   -0.066629
C     -1.966618    0.223039   -1.383900
C     -2.231269    1.722088   -1.211407
C     -3.553229    1.950710   -0.475691
C     -3.576258    1.172206    0.841411
C     -3.256459   -0.307289    0.599878
C      0.633661   -1.393670    0.880962
O      0.222846   -1.627196    2.051370
C      1.768936   -0.458475    0.689000
C      1.984673    0.575206    1.617103
C      3.047026    1.468440    1.452042
C      3.909720    1.346854    0.353830
C      5.073058    2.280962    0.199117
C      3.718625    0.299043   -0.557733
C      2.655826   -0.594455   -0.394946
H     -0.170535   -4.044987   -1.196557
H      1.407669   -3.676819   -0.413924
H     -0.031846   -4.067965    0.604904
H      0.285709   -1.623039   -1.241212
H     -1.954019   -2.464134    0.672527
H     -2.073150   -2.328440   -1.103292
H     -2.745926   -0.220648   -2.045311
H     -0.985431    0.115274   -1.891229
H     -2.273859    2.209840   -2.209042
H     -1.397984    2.181066   -0.634883
H     -3.679734    3.035028   -0.268164
H     -4.399479    1.621373   -1.118212
H     -4.580578    1.264229    1.308123
H     -2.826912    1.602714    1.541691
H     -3.235968   -0.809647    1.592257
H     -4.063346   -0.775949   -0.009224
H      1.324005    0.699243    2.466408
H      3.195176    2.256214    2.180454
H      5.330112    2.412150   -0.873632
H      4.831153    3.280765    0.618577
H      5.952779    1.866706    0.734404
H      4.395895    0.170065   -1.393107
H      2.549735   -1.404022   -1.104535
