28
Lipophilicity 762 1.5299999713897705
N     -4.239610    1.060529    1.624599
C     -3.383141    0.548585    0.603590
N     -3.699648    0.710825   -0.716266
C     -2.884543    0.232475   -1.711277
N     -1.725660   -0.424475   -1.403187
C     -1.418829   -0.587781   -0.093554
C     -2.203695   -0.122860    0.904848
N     -1.651706   -0.390616    2.103967
C     -0.501933   -1.038755    1.767054
N     -0.339015   -1.182253    0.426740
C      0.812708   -1.740693   -0.275929
C      1.815958   -0.656847   -0.556904
C      2.764973   -0.303170    0.416361
C      3.671604    0.732998    0.171651
C      3.630011    1.428674   -1.039863
C      2.679018    1.091870   -2.007144
C      1.770741    0.056231   -1.766416
H     -4.003168    0.941307    2.634754
H     -5.118350    1.562928    1.368772
H     -3.159800    0.377760   -2.746738
H      0.215336   -1.389677    2.497766
H      1.276993   -2.540271    0.341901
H      0.479935   -2.217640   -1.223756
H      2.800452   -0.827601    1.363303
H      4.403798    0.999335    0.922927
H      4.331341    2.231485   -1.227137
H      2.643167    1.635835   -2.942173
H      1.033063   -0.188198   -2.520615
