42
Lipophilicity 1928 2.9100000858306885
C     -2.402163   -0.350744    1.787818
C     -2.010325   -1.388993    0.729253
N     -0.551555   -1.442042    0.579733
C      0.314633   -1.891088    1.632804
O     -0.142992   -2.622764    2.552316
C      1.749007   -1.524972    1.636413
C      2.698369   -2.420142    2.154183
C      4.053525   -2.089059    2.147287
C      4.452891   -0.856529    1.632967
N      3.525486    0.012784    1.154360
C      2.194500   -0.282021    1.139420
O      1.263827    0.668625    0.696808
C      1.529343    1.722744   -0.187926
C      2.549206    1.654834   -1.156222
C      2.761875    2.726499   -2.029630
C      1.955661    3.865133   -1.951801
C      0.928645    3.929836   -1.006724
C      0.713551    2.860365   -0.131941
C     -2.670274   -1.063118   -0.597067
C     -3.628814   -1.934506   -1.144867
C     -4.239770   -1.635795   -2.366810
C     -3.903974   -0.465082   -3.051138
C     -2.957329    0.410840   -2.514484
C     -2.345103    0.118387   -1.292569
H     -2.018821   -0.653925    2.784681
H     -3.508416   -0.270108    1.854281
H     -1.980088    0.646073    1.537940
H     -2.362980   -2.384069    1.080979
H     -0.115021   -1.173498   -0.331499
H      2.392968   -3.381724    2.548555
H      4.787641   -2.782610    2.536848
H      5.500119   -0.585434    1.622885
H      3.155840    0.765703   -1.263701
H      3.544301    2.668849   -2.775197
H      2.119816    4.692191   -2.630442
H      0.299011    4.808338   -0.952140
H     -0.087637    2.915481    0.594355
H     -3.902660   -2.846813   -0.629627
H     -4.975250   -2.311823   -2.782750
H     -4.377468   -0.235858   -3.997153
H     -2.697830    1.318003   -3.044717
H     -1.611745    0.808034   -0.893215
