40
Lipophilicity 592 3.4600000381469727
O      1.238471   -1.060366   -3.932069
C      1.370012   -0.830656   -2.698825
C      2.592264   -0.358286   -2.218492
C      2.754198   -0.092440   -0.849519
N      1.707902   -0.301628    0.004432
C      0.500863   -0.765039   -0.434058
C     -0.550589   -0.970076    0.473600
C     -1.791975   -1.451311    0.030496
C     -2.926826   -1.627833    1.002777
C     -3.709833   -0.348948    1.124667
C     -3.341656    0.620335    2.073040
C     -4.047712    1.824197    2.159991
C     -5.118558    2.072301    1.296849
C     -5.483061    1.118285    0.342759
C     -4.779698   -0.086908    0.252271
C     -1.984942   -1.709921   -1.334336
C     -0.945997   -1.512019   -2.246436
C      0.304214   -1.040770   -1.807288
C      4.048970    0.420451   -0.334338
C      4.081521    1.416297    0.655747
C      5.304067    1.890889    1.133854
C      6.489995    1.365552    0.620272
N      6.448655    0.400977   -0.335864
C      5.271316   -0.077110   -0.820363
H      3.404012   -0.180780   -2.914049
H      1.840114   -0.123180    1.026326
H     -0.404584   -0.752164    1.525050
H     -2.533613   -1.931776    1.997890
H     -3.593239   -2.453187    0.668172
H     -2.508363    0.444431    2.741990
H     -3.762439    2.566314    2.894389
H     -5.663123    3.005200    1.364592
H     -6.308622    1.314102   -0.329226
H     -5.066636   -0.813867   -0.497416
H     -2.943379   -2.064195   -1.693358
H     -1.124475   -1.724752   -3.293386
H      3.164757    1.840784    1.045225
H      5.331938    2.661818    1.893043
H      7.444314    1.724398    0.981906
H      5.291739   -0.856935   -1.570312
