39
Lipophilicity 1524 3.0
O     -1.927929   -1.819681   -0.852048
C     -0.947148   -1.156658   -0.416704
N     -0.915197    0.268982   -0.589560
C     -1.919022    0.984633   -1.373228
C     -3.202898    1.096565   -0.597278
C     -4.332102    0.347623   -0.969161
C     -5.514884    0.443301   -0.229157
C     -5.577616    1.282760    0.886528
C     -4.457023    2.027178    1.265164
C     -3.272315    1.934325    0.528111
C      0.139478   -1.859940    0.300936
C     -0.171107   -2.945786    1.135035
C      0.839115   -3.611680    1.828650
C      2.160250   -3.196230    1.674925
N      2.454329   -2.159785    0.848108
C      1.491136   -1.481735    0.161404
O      1.846041   -0.460681   -0.731626
C      3.053961    0.251133   -0.712630
C      3.545560    0.766143   -1.918973
C      4.739859    1.493097   -1.944206
C      5.445153    1.721515   -0.759759
C      4.952476    1.230118    0.452070
C      3.758707    0.501985    0.480382
H     -0.194748    0.833500   -0.085982
H     -1.545854    2.006914   -1.600179
H     -2.072762    0.471667   -2.347767
H     -4.297236   -0.310466   -1.828450
H     -6.382528   -0.134821   -0.519754
H     -6.493651    1.354999    1.458462
H     -4.505737    2.674857    2.130957
H     -2.408835    2.512255    0.833929
H     -1.197654   -3.267384    1.262218
H      0.599603   -4.442072    2.480224
H      2.954844   -3.704146    2.204848
H      3.003383    0.595387   -2.840403
H      5.117276    1.880823   -2.881597
H      6.368308    2.286181   -0.779722
H      5.491005    1.421278    1.371306
H      3.375762    0.163847    1.433572
