62
Lipophilicity 448 1.590000033378601
O     -5.925728   -5.209788   -0.684009
C     -5.729033   -3.876833   -0.324460
C     -6.827388   -3.091189    0.039367
C     -6.641886   -1.759966    0.421700
C     -5.358657   -1.206300    0.432216
C     -4.250792   -1.974573    0.043717
N     -2.941644   -1.384645    0.078862
C     -1.973915   -1.516812   -0.978211
O     -2.085665   -2.433747   -1.836166
C     -0.835258   -0.576468   -1.074979
C      0.433269   -1.064956   -1.422132
C      1.527460   -0.202663   -1.508639
C      1.369642    1.171838   -1.256577
O      2.437315    2.082936   -1.316914
C      3.814625    1.737690   -1.464754
C      4.366205    1.155409   -0.159142
C      5.845236    0.774706   -0.301342
N      6.382367    0.288498    0.984526
C      5.896075   -1.054237    1.340505
C      7.033840   -1.787138    2.047095
C      8.219216   -0.842051    1.994977
C      7.842435    0.183486    0.947255
C      0.099678    1.666189   -0.940454
C     -1.011011    0.805112   -0.853699
O     -2.298682    1.288427   -0.574704
C     -2.627569    2.643922   -0.293893
C     -4.091377    2.722365    0.022979
C     -5.042031    2.686135   -1.006011
C     -6.403921    2.688002   -0.699231
C     -6.803557    2.715969    0.637051
N     -5.870916    2.735911    1.625319
C     -4.538508    2.734610    1.351959
C     -4.440595   -3.320836   -0.318163
H     -5.149649   -5.807231   -0.944931
H     -7.823828   -3.515366    0.035986
H     -7.493123   -1.157296    0.709911
H     -5.227028   -0.173850    0.732275
H     -2.749406   -0.696467    0.841897
H      0.581572   -2.121882   -1.609912
H      2.488990   -0.620336   -1.771494
H      4.376164    2.664328   -1.709263
H      3.952058    1.034454   -2.313868
H      4.256008    1.910669    0.649859
H      3.778290    0.258146    0.124996
H      6.407683    1.684216   -0.612763
H      5.968520    0.011067   -1.103292
H      5.584999   -1.640632    0.444519
H      5.022151   -0.959671    2.021155
H      7.274050   -2.733493    1.510117
H      6.765835   -2.026132    3.101036
H      9.156996   -1.374283    1.724573
H      8.344338   -0.340513    2.979980
H      8.199275   -0.168774   -0.048744
H      8.305585    1.167663    1.176016
H     -0.011625    2.727942   -0.767618
H     -2.027202    3.007017    0.568683
H     -2.398773    3.278449   -1.177592
H     -4.728621    2.648157   -2.041504
H     -7.142285    2.661017   -1.489666
H     -7.855558    2.715606    0.889275
H     -3.830122    2.735171    2.169480
H     -3.594526   -3.946983   -0.565949
