68
Lipophilicity 1193 1.809999942779541
C     -6.509977    0.545649    1.397430
C     -6.120771    1.588733    0.389091
C     -7.114891    2.118421   -0.452974
C     -6.810846    3.138939   -1.357453
F     -7.778965    3.645752   -2.159407
C     -5.512650    3.644009   -1.429264
C     -4.510148    3.110634   -0.617665
C     -4.790550    2.063074    0.269881
O     -3.722099    1.542286    1.016267
C     -3.305487    0.170106    1.011777
C     -2.009177    0.042609    1.816973
C     -0.848351    0.747550    1.098320
N     -0.629804    0.219901   -0.266357
C     -0.005598   -1.126856   -0.264903
C      0.781631   -1.397652   -1.571399
C      1.922979   -0.371884   -1.805254
C      3.315212   -0.934174   -1.483357
N      3.239230   -1.828806   -0.310879
C      2.512593   -3.078268   -0.656199
C      1.315257   -2.843846   -1.606801
C      4.573733   -2.001501    0.348632
C      4.639635   -1.146595    1.631996
C      4.415940    0.317700    1.357742
C      3.152689    0.890066    1.573574
C      2.920728    2.230673    1.254164
C      3.950398    3.010392    0.718955
F      3.723472    4.309921    0.403770
C      5.213195    2.449557    0.505686
C      5.447689    1.107956    0.824072
C      4.916583   -3.433434    0.706437
O      5.738063   -4.076652   -0.000173
O      4.308405   -4.056106    1.793347
C     -1.865125    0.317667   -1.081158
C     -3.082660   -0.350319   -0.417857
H     -7.586643    0.631275    1.660868
H     -5.933738    0.677114    2.338063
H     -6.336927   -0.465685    0.973713
H     -8.132754    1.751567   -0.396989
H     -5.279535    4.445120   -2.120063
H     -3.502179    3.499307   -0.692777
H     -4.067079   -0.461200    1.506775
H     -1.763246   -1.030872    1.969384
H     -2.150932    0.499151    2.820776
H      0.071949    0.652028    1.709019
H     -1.059497    1.837538    1.037135
H     -0.770670   -1.917409   -0.120579
H      0.706819   -1.220587    0.583928
H      0.075671   -1.314974   -2.423165
H      1.758156    0.546029   -1.200747
H      1.916868   -0.053700   -2.870855
H      3.994865   -0.074806   -1.301482
H      3.717410   -1.487521   -2.362567
H      3.191680   -3.807075   -1.151650
H      2.129034   -3.535985    0.281198
H      1.642607   -3.062616   -2.647784
H      0.501257   -3.565657   -1.376687
H      5.390538   -1.648469   -0.324190
H      5.637034   -1.271192    2.110175
H      3.883600   -1.510771    2.362349
H      2.348863    0.293553    1.980417
H      1.940678    2.661213    1.416873
H      6.009056    3.050986    0.086415
H      6.424820    0.680647    0.638404
H      4.518852   -5.018889    2.023681
H     -2.093748    1.390991   -1.253134
H     -1.718808   -0.120247   -2.087497
H     -2.947618   -1.452034   -0.392391
H     -3.986714   -0.162332   -1.036564
