63
Lipophilicity 281 4.360000133514404
O     -1.979657    1.358632    1.680568
C     -2.338432    1.042674    0.514593
N     -3.711361    1.172763    0.128647
C     -4.767755    1.545441    1.074028
C     -5.177660    3.006176    0.864860
C     -6.550488    2.996249    0.191532
C     -6.864702    1.545067   -0.138522
C     -6.020769    0.716746    0.815229
C     -1.321354    0.547261   -0.488004
N      0.044078    0.517860    0.090082
C      0.422000   -0.545618    1.044673
C      1.003310   -1.741860    0.351710
O      1.114696   -1.875804   -0.950878
C      1.659653   -3.041510   -1.206453
C      1.921703   -3.702444   -0.022666
C      1.498021   -2.863575    0.985459
C      0.842723    1.723108    0.021562
O      0.280488    2.830093   -0.188879
C      2.299067    1.718288    0.262851
C      3.001085    2.731948    0.880995
C      4.316521    2.318643    0.937536
C      4.364962    1.073764    0.333187
N      3.132685    0.723271   -0.086656
C      5.568485    0.217587    0.199014
C      6.858303    0.769960    0.300494
C      7.989476   -0.046083    0.203723
C      7.849115   -1.419536    0.001336
C      6.575830   -1.981866   -0.109098
C      5.440856   -1.170592   -0.009489
C     -1.710842   -0.795687   -1.085983
C     -2.314390   -1.806933   -0.314538
C     -2.591933   -3.045879   -0.893675
N     -2.284559   -3.274371   -2.196593
C     -1.706353   -2.319614   -2.969377
C     -1.406532   -1.068119   -2.429976
H     -3.952735    1.074030   -0.882724
H     -4.430960    1.382204    2.121484
H     -5.249174    3.524863    1.848178
H     -4.437524    3.551405    0.235274
H     -6.550617    3.618838   -0.731790
H     -7.316839    3.395042    0.894912
H     -6.560754    1.325821   -1.189512
H     -7.949133    1.324320   -0.014384
H     -6.577217    0.576876    1.770367
H     -5.786756   -0.284368    0.387991
H     -1.340544    1.285663   -1.320007
H     -0.464245   -0.867668    1.629445
H      1.155545   -0.167622    1.788797
H      1.865155   -3.413294   -2.200829
H      2.367991   -4.679186    0.088892
H      1.546166   -3.045393    2.052784
H      2.598032    3.654718    1.269691
H      5.133305    2.862926    1.389316
H      2.881375   -0.126584   -0.630143
H      6.999368    1.830877    0.448464
H      8.976241    0.389294    0.288119
H      8.728536   -2.049982   -0.071100
H      6.466159   -3.047251   -0.259402
H      4.468873   -1.639431   -0.073657
H     -2.560525   -1.645780    0.726590
H     -3.048582   -3.828117   -0.303956
H     -1.470777   -2.534020   -4.002016
H     -0.926633   -0.324215   -3.052077
