27
Lipophilicity 1083 2.4600000381469727
O     -1.562729   -2.971641   -0.950965
C     -1.214779   -1.699436   -0.491107
N      0.107239   -1.402079   -0.393732
C      0.549195   -0.192360    0.042640
N     -0.354792    0.758455    0.395816
C     -1.690109    0.528691    0.323130
C     -2.585595    1.536917    0.697115
C     -3.961488    1.313306    0.626997
C     -4.448663    0.082601    0.183357
C     -3.564524   -0.933554   -0.193420
C     -2.171291   -0.723070   -0.128213
C      2.003991    0.086771    0.132302
C      2.946975   -0.894489   -0.232288
C      4.317049   -0.628184   -0.146604
C      4.762890    0.616384    0.302427
C      3.839529    1.598122    0.667032
C      2.468106    1.338166    0.583668
H     -2.511836   -3.297554   -1.061748
H     -2.216366    2.494828    1.042499
H     -4.651643    2.095064    0.916944
H     -5.516794   -0.085272    0.131001
H     -3.991838   -1.865324   -0.528829
H      2.628981   -1.867854   -0.583721
H      5.033927   -1.388428   -0.428964
H      5.823896    0.820052    0.367848
H      4.186464    2.562576    1.014990
H      1.774204    2.117314    0.872716
