65
Lipophilicity 927 3.8499999046325684
C     -2.884983    0.815048   -0.745060
C     -3.436127   -0.238793    0.212466
O     -2.415259   -1.218915    0.423090
C     -2.551240   -2.427404    1.127738
C     -3.823034   -2.946676    1.450711
C     -3.949209   -4.192091    2.066088
C     -2.815573   -4.943380    2.368529
C     -1.543570   -4.443232    2.081586
N     -0.452759   -5.196872    2.374144
C      0.800367   -4.745127    2.123747
N      0.985376   -3.512980    1.592794
C     -0.062026   -2.707209    1.265250
N      0.214322   -1.366095    0.827447
C      1.252647   -1.008477   -0.103432
C      1.617213    0.338890   -0.231014
C      2.611895    0.722808   -1.131444
C      3.277211   -0.238105   -1.914061
O      4.286755    0.128893   -2.821920
C      5.120415    1.251782   -2.698915
C      5.552684    1.909053   -3.854356
C      6.382051    3.028517   -3.754620
C      6.792559    3.472378   -2.490865
C      7.657705    4.684436   -2.354820
N      6.377995    2.808220   -1.377702
C      5.571012    1.715152   -1.451490
C      2.890675   -1.588029   -1.824496
C      3.564079   -2.626709   -2.680491
C      1.875731   -1.965340   -0.926948
C     -1.390388   -3.165818    1.486835
C     -3.816037    0.420551    1.521393
O     -2.993479    0.384657    2.481724
N     -5.045122    1.170912    1.664286
C     -6.186496    0.910735    0.779845
C     -5.151168    2.200500    2.713459
C     -4.278449    3.408667    2.363962
O     -4.401463    4.395330    3.353122
H     -1.975385    1.290632   -0.317611
H     -2.611414    0.334866   -1.708396
H     -3.640983    1.603508   -0.947376
H     -4.314113   -0.716580   -0.270316
H     -4.726020   -2.408534    1.203485
H     -4.932988   -4.583985    2.292297
H     -2.927068   -5.918086    2.826127
H      1.657325   -5.360356    2.365986
H     -0.265998   -0.588240    1.336370
H      1.124548    1.096091    0.364369
H      2.848721    1.773618   -1.229998
H      5.232744    1.558954   -4.828415
H      6.705533    3.541560   -4.651892
H      8.036571    4.777712   -1.314630
H      8.527808    4.612444   -3.041830
H      7.069819    5.592207   -2.606091
H      5.293387    1.203021   -0.540001
H      3.413956   -2.381800   -3.753777
H      3.153049   -3.642638   -2.495593
H      4.652115   -2.648693   -2.457418
H      1.569284   -3.001238   -0.884894
H     -5.923211    1.170989   -0.262790
H     -6.467493   -0.161353    0.835910
H     -7.076009    1.509541    1.062714
H     -6.201766    2.539088    2.832922
H     -4.836249    1.777182    3.690312
H     -3.212634    3.092879    2.307262
H     -4.567832    3.814088    1.366539
H     -5.240008    4.887848    3.158939
