70
Lipophilicity 1424 2.049999952316284
C      7.571825   -2.726373   -0.365114
N      7.687476   -1.381995   -0.947549
C      6.450188   -0.872620   -1.582077
C      5.836402   -1.878709   -2.567284
C      5.417178   -0.390229   -0.583567
O      5.524695   -0.678357    0.640642
N      4.315145    0.412768   -1.042008
C      3.217900    0.849343   -0.164986
C      1.893394    0.489418   -0.800975
O      1.716574    0.682652   -2.035615
N      0.834331   -0.056322    0.003621
C     -0.476209   -0.419954   -0.551772
C     -0.967402   -1.746721    0.034505
C     -1.277258   -1.655723    1.535889
C     -1.694684   -0.249111    2.014006
N     -2.257391    0.609495    0.951214
C     -3.733027    0.626882    0.841906
C     -4.313119   -0.668842    0.252074
C     -5.816517   -0.598175    0.183076
C     -6.447254    0.009566   -0.914553
C     -7.841818    0.064484   -0.985685
C     -8.624636   -0.471472    0.048409
C    -10.119488   -0.475592   -0.062178
C     -7.995326   -1.073347    1.148714
C     -6.600144   -1.122601    1.223411
C     -1.508639    0.707926   -0.326106
C      3.336454    2.371950    0.191500
C      3.242536    3.270739   -1.063154
C      4.692843    2.633714    0.883248
C      2.214878    2.774644    1.176188
H      6.659667   -2.833990    0.256649
H      7.559733   -3.492452   -1.168673
H      8.456531   -2.930048    0.274112
H      7.994691   -0.713737   -0.201086
H      6.745273    0.014068   -2.184037
H      6.621125   -2.278913   -3.245096
H      5.061664   -1.381394   -3.189702
H      5.356277   -2.722996   -2.026483
H      4.316836    0.721848   -2.040730
H      3.276051    0.279792    0.789493
H      0.985038   -0.113455    1.035797
H     -0.375830   -0.574797   -1.649830
H     -1.882374   -2.063117   -0.510632
H     -0.203388   -2.538405   -0.138119
H     -0.377579   -1.969977    2.111504
H     -2.073240   -2.391046    1.784641
H     -0.808450    0.268717    2.437789
H     -2.410999   -0.354929    2.858182
H     -4.177164    0.806173    1.847212
H     -4.040957    1.490033    0.210441
H     -3.913123   -0.840597   -0.770255
H     -4.019301   -1.534246    0.879030
H     -5.857863    0.428526   -1.721059
H     -8.309971    0.518979   -1.849970
H    -10.475828    0.425495   -0.604563
H    -10.589422   -0.476082    0.944238
H    -10.444422   -1.380328   -0.615261
H     -8.583615   -1.506482    1.948290
H     -6.129902   -1.581805    2.085738
H     -0.990904    1.691866   -0.355366
H     -2.209959    0.714054   -1.190754
H      4.045558    3.031344   -1.790397
H      2.260040    3.158914   -1.566170
H      3.352331    4.339830   -0.782366
H      4.775544    3.693993    1.207730
H      5.537761    2.424092    0.193790
H      4.804755    1.989645    1.782326
H      1.213369    2.683404    0.704888
H      2.336512    3.831356    1.500388
H      2.236624    2.129232    2.081509
