51
Lipophilicity 1473 4.039999961853027
C     -8.228292    1.017823    0.373874
O     -7.095145    0.500068   -0.315740
C     -5.766306    0.647252    0.113243
C     -5.436070    1.334732    1.296503
C     -4.101869    1.464685    1.690669
N     -3.798175    2.108571    2.847560
C     -2.511867    2.237713    3.259379
N     -1.501451    1.732206    2.507390
C     -1.743062    1.086709    1.335165
N     -0.634277    0.608420    0.563690
C     -0.156582    1.297373   -0.622695
C      1.267169    0.799873   -0.839877
C      1.408233   -0.458261    0.025027
C      0.331537   -0.332311    1.097235
O      2.700800   -0.539348    0.630106
C      3.895276   -0.837213   -0.043276
C      3.934345   -1.193931   -1.405469
N      5.127321   -1.470631   -1.995291
C      6.289769   -1.411550   -1.295766
C      7.511733   -1.698051   -1.914305
C      8.698023   -1.632874   -1.174754
C      8.664630   -1.282492    0.180381
C      7.444781   -0.995286    0.803242
C      6.256138   -1.058893    0.067772
N      5.062002   -0.783187    0.653935
C     -3.072277    0.919530    0.897218
C     -3.403106    0.213659   -0.271542
C     -4.747917    0.081353   -0.669966
O     -5.113485   -0.607888   -1.837604
C     -4.194506   -1.226782   -2.732315
H     -8.158782    2.123770    0.446430
H     -8.295267    0.570658    1.388146
H     -9.146597    0.756182   -0.190560
H     -6.208406    1.767151    1.918854
H     -2.290816    2.749653    4.185699
H     -0.164496    2.397968   -0.463598
H     -0.793836    1.042893   -1.495277
H      1.986408    1.578245   -0.501175
H      1.451106    0.577755   -1.912835
H      1.200034   -1.368687   -0.580235
H     -0.153563   -1.314003    1.287886
H      0.756809    0.066574    2.044609
H      3.034748   -1.260240   -1.998505
H      7.544835   -1.970124   -2.962008
H      9.644069   -1.854146   -1.651702
H      9.584946   -1.233619    0.747895
H      7.426290   -0.724863    1.851731
H     -2.623327   -0.246913   -0.859331
H     -3.496792   -0.469239   -3.147940
H     -4.758129   -1.687282   -3.569306
H     -3.626607   -2.022997   -2.206241
