29
Lipophilicity 873 3.5999999046325684
O      3.044536    2.514597    4.243410
C      2.471196    1.819979    3.180469
C      3.199291    0.848823    2.488566
C      2.636693    0.158372    1.407999
O      3.480295   -0.717789    0.718882
C      1.276056    0.398142    1.050583
C      0.566106   -0.328327    0.062384
O      1.078904   -1.329468   -0.504404
C     -0.758356    0.031748   -0.254292
C     -1.357042    1.068659    0.470399
O     -0.695301    1.695148    1.431925
C      0.560228    1.405134    1.751384
C      1.162138    2.105074    2.800016
C     -1.530130   -0.669320   -1.312412
C     -0.969761   -0.881617   -2.585246
C     -1.703459   -1.534165   -3.580785
C     -3.002381   -1.977209   -3.317911
F     -3.712000   -2.609438   -4.284815
C     -3.570678   -1.765772   -2.058974
C     -2.841053   -1.113106   -1.060515
H      3.995255    2.333428    4.543809
H      4.225847    0.649556    2.770813
H      3.321189   -1.044971   -0.222198
H     -2.373363    1.372444    0.254190
H      0.603347    2.865824    3.331449
H      0.028568   -0.529169   -2.813026
H     -1.265014   -1.692109   -4.557762
H     -4.576917   -2.108514   -1.854826
H     -3.294196   -0.965955   -0.087913
