34
Lipophilicity 768 4.059999942779541
N     -2.423357    0.966638    0.703894
C     -3.666932    0.290279    0.451701
C     -4.866374    1.018423    0.481797
C     -6.089602    0.375409    0.267741
C     -6.125639   -1.002427    0.038184
C     -4.939168   -1.740435    0.030460
C     -3.714078   -1.100799    0.243848
C     -1.159362    0.589775    0.135486
C     -1.072364   -0.008747   -1.129597
C      0.188752   -0.311558   -1.639064
N      1.300294   -0.014778   -0.918966
C      1.208122    0.572418    0.305179
N      2.387127    0.920619    1.044956
C      3.708222    0.448989    0.730200
C      3.927672   -0.859303    0.259827
C      5.225870   -1.301252   -0.014507
C      6.314379   -0.449728    0.190962
C      6.107364    0.842455    0.680246
C      4.810904    1.287759    0.956520
N     -0.015677    0.884125    0.809915
H     -2.434542    1.787698    1.350625
H     -4.850682    2.086031    0.661904
H     -7.009773    0.945114    0.282445
H     -7.073175   -1.499278   -0.125450
H     -4.969287   -2.809970   -0.132931
H     -2.808499   -1.693009    0.263779
H     -1.955459   -0.216234   -1.719510
H      0.285393   -0.772291   -2.613028
H      2.285076    1.623803    1.811661
H      3.102838   -1.546918    0.128968
H      5.388704   -2.307784   -0.377729
H      7.318483   -0.794127   -0.020306
H      6.951676    1.498623    0.847835
H      4.663094    2.290479    1.337585
