40
Lipophilicity 983 2.7200000286102295
C      5.429245    1.032958   -0.663419
O      4.698363   -0.173680   -0.482659
C      4.916180   -1.311099   -1.267569
O      5.807672   -1.316816   -2.161775
C      4.036665   -2.512152   -1.084812
C      2.855045   -2.492703   -2.063488
C      1.929805   -1.344649   -1.778256
O      2.010801   -0.298127   -2.475477
N      0.982274   -1.434576   -0.702432
C      0.218098   -0.318220   -0.216212
C      0.785313    0.955425   -0.107630
C      0.034852    2.017192    0.389008
C     -1.299795    1.828448    0.790120
C     -2.068280    2.969133    1.329220
O     -1.547409    4.113911    1.412935
C     -3.447781    2.769086    1.777793
O     -4.091917    3.739158    2.263127
C     -4.073141    1.437545    1.648809
C     -5.410853    1.258811    2.041546
C     -6.029164    0.021284    1.899787
C     -5.326222   -1.049913    1.357959
C     -3.997212   -0.892550    0.960388
C     -3.335245    0.349356    1.108520
C     -1.895907    0.544593    0.694467
C     -1.101209   -0.521696    0.208193
H      5.265765    1.427158   -1.689893
H      5.071753    1.787198    0.068929
H      6.512264    0.852800   -0.492350
H      4.635346   -3.433818   -1.257504
H      3.663903   -2.545195   -0.035246
H      3.230725   -2.428619   -3.111153
H      2.291540   -3.446145   -1.969155
H      0.780004   -2.380811   -0.308106
H      1.820149    1.124846   -0.375102
H      0.506794    2.990044    0.466529
H     -5.983785    2.080255    2.453797
H     -7.058875   -0.104675    2.201291
H     -5.815486   -2.009600    1.240716
H     -3.521102   -1.758365    0.534602
H     -1.479173   -1.525794    0.139629
