41
Lipophilicity 1391 3.109999895095825
C     -0.934618    0.008430    2.909640
C     -1.947540   -0.585432    1.922327
N     -1.595952   -1.976630    1.609068
C     -0.466546   -2.367934    0.799013
N      0.337089   -1.415208    0.246605
C      1.395559   -1.715963   -0.556157
N      2.180739   -0.668680   -1.148816
C      2.159867    0.688324   -0.689158
C      2.649792    1.770113   -1.393588
C      2.432087    2.834358   -0.542826
C      2.694574    4.271757   -0.848066
N      1.843966    2.390931    0.583870
N      1.682783    1.080147    0.508415
C      1.679528   -3.057319   -0.842184
F      2.720550   -3.392249   -1.645371
C      0.885947   -4.059972   -0.286205
C     -0.194180   -3.727474    0.537695
C     -1.001511   -4.786689    1.091520
N     -1.648864   -5.637040    1.535539
C     -2.111854    0.232242    0.658289
C     -3.040787   -0.163915   -0.316633
C     -3.172239    0.586553   -1.486810
C     -2.385989    1.724400   -1.674506
F     -2.503576    2.459677   -2.807385
C     -1.478916    2.098558   -0.681760
N     -1.364289    1.353724    0.449797
H      0.081443    0.048841    2.468059
H     -0.894415   -0.617389    3.826374
H     -1.241862    1.034978    3.202978
H     -2.932730   -0.583205    2.440178
H     -2.235689   -2.711828    1.984993
H      2.785379   -0.893005   -1.971189
H      3.084105    1.782270   -2.384620
H      2.916612    4.823478    0.089282
H      3.563530    4.364642   -1.533036
H      1.798971    4.715777   -1.330071
H      1.542410    2.972737    1.396673
H      1.111026   -5.097593   -0.503371
H     -3.649588   -1.048057   -0.173377
H     -3.881905    0.285002   -2.246383
H     -0.862910    2.978640   -0.810307
