57
Lipophilicity 35 3.299999952316284
C      5.457995    0.269521   -2.401136
C      5.742325   -0.944786   -1.526119
C      4.492294   -1.410241   -0.850661
O      3.854952   -2.391296   -1.321438
O      4.034571   -0.735621    0.286112
C      2.797502   -1.035341    0.937634
C      2.816142   -0.519864    2.392249
C      1.418804    0.056335    2.677801
C      0.594186   -0.359944    1.467284
C     -0.720769    0.387786    1.161131
C     -1.667766    0.343675    2.372028
C     -2.970768    1.078113    2.070536
C     -3.627426    0.534103    0.823153
C     -4.967122    0.403837    0.809704
C     -5.701350    0.012044   -0.400245
O     -6.952634   -0.124991   -0.352512
C     -4.986411   -0.158835   -1.700888
C     -3.529492   -0.565726   -1.463813
C     -2.784776    0.364515   -0.450977
C     -2.591323    1.764296   -1.089182
C     -1.404281   -0.300316   -0.068663
C     -0.423171   -0.459399   -1.275807
C      0.937449   -1.084328   -0.885320
C      1.583526   -0.327727    0.295387
C      1.994283    1.112730   -0.149497
H      4.691289    0.023235   -3.166551
H      6.389990    0.581163   -2.917927
H      5.098239    1.116870   -1.779642
H      6.497542   -0.677215   -0.756682
H      6.160880   -1.761456   -2.153508
H      2.638978   -2.138642    0.963580
H      3.583340    0.274646    2.523638
H      3.046083   -1.353347    3.091411
H      0.997852   -0.366350    3.616101
H      1.460185    1.164332    2.762013
H      0.311107   -1.425599    1.658052
H     -0.498100    1.452060    0.951818
H     -1.188006    0.833633    3.246566
H     -1.892707   -0.710223    2.649878
H     -3.635605    0.978061    2.956873
H     -2.765094    2.160928    1.928108
H     -5.541904    0.593188    1.708889
H     -5.489797   -0.945770   -2.303542
H     -5.034397    0.791286   -2.273404
H     -3.016859   -0.567432   -2.448939
H     -3.524717   -1.612656   -1.086206
H     -2.160510    1.689070   -2.109059
H     -3.563970    2.292778   -1.180096
H     -1.930591    2.408873   -0.476751
H     -1.638184   -1.341202    0.256297
H     -0.243316    0.516221   -1.767462
H     -0.874496   -1.124315   -2.040361
H      0.778044   -2.152121   -0.616285
H      1.610791   -1.061722   -1.768799
H      2.505556    1.666261    0.665013
H      2.694315    1.058903   -1.009220
H      1.137320    1.728002   -0.480564
