34
Lipophilicity 295 1.7000000476837158
F      1.018204   -2.634230   -0.198471
C      2.021420   -2.231577    0.621976
C      2.673163   -3.190722    1.404936
C      3.742876   -2.823113    2.223494
C      4.170891   -1.495045    2.257672
C      3.526270   -0.530240    1.478371
C      2.437013   -0.883476    0.659766
C      1.764944    0.154945   -0.156976
O      2.403114    1.190394   -0.491787
N      0.380137    0.028219   -0.511951
C     -0.215806    0.730045   -1.616863
C      0.386035    1.048484   -2.820199
C     -0.565336    1.765435   -3.517016
N     -1.681934    1.869097   -2.767027
N     -1.471751    1.228201   -1.625946
C     -2.454938    1.144572   -0.585689
C     -3.059619    2.314051   -0.100463
C     -4.038402    2.239686    0.895639
C     -4.429831    0.996645    1.401140
C     -3.848660   -0.173931    0.905332
C     -2.869437   -0.102542   -0.090425
C      1.677943    0.646918   -3.309567
N      2.716801    0.323278   -3.703449
H      2.353665   -4.224421    1.370607
H      4.244390   -3.569071    2.826436
H      5.003035   -1.211981    2.889332
H      3.871537    0.495236    1.525571
H     -0.237181   -0.492486    0.146973
H     -0.459642    2.175420   -4.512768
H     -2.763860    3.280954   -0.487798
H     -4.494854    3.145226    1.273924
H     -5.188777    0.940060    2.170712
H     -4.162717   -1.136928    1.286715
H     -2.448691   -1.017102   -0.488509
