46
Lipophilicity 165 0.07000000029802322
N     -6.944157    2.074501    1.503514
C     -5.862536    2.187509    0.574535
O     -5.707024    3.272651   -0.048128
C     -4.917865    1.067035    0.343341
C     -5.283555   -0.262512    0.618379
C     -4.383608   -1.304780    0.386659
C     -3.111796   -1.038291   -0.123375
C     -2.727585    0.284963   -0.409969
O     -1.464786    0.616883   -0.928384
C     -0.362675   -0.279917   -1.085634
C      0.239355   -0.644360    0.303084
C      1.690731   -1.162445    0.181832
C      1.764270   -2.378542   -0.757120
C      2.047881   -1.771495   -2.128688
C      2.087007   -0.258171   -1.867112
C      0.684631    0.375477   -2.025779
N      2.467556   -0.094253   -0.460108
C      3.925228   -0.231183   -0.245493
C      4.299188    0.317112    1.139326
C      5.683498    0.938643    1.249742
C      4.449789    1.828568    1.216665
C     -3.638057    1.324518   -0.182003
H     -7.628099    2.857272    1.602758
H     -7.026237    1.265370    2.156719
H     -6.270360   -0.507391    0.986604
H     -4.676882   -2.325707    0.595367
H     -2.446974   -1.870795   -0.299990
H     -0.713694   -1.206592   -1.588818
H     -0.387413   -1.410539    0.805974
H      0.241976    0.260669    0.949629
H      2.075534   -1.414553    1.194493
H      2.599757   -3.046160   -0.453300
H      0.823982   -2.972428   -0.757274
H      3.038966   -2.114674   -2.498228
H      1.272156   -2.053804   -2.873748
H      2.793397    0.252765   -2.559284
H      0.346357    0.289572   -3.081423
H      0.763164    1.459478   -1.788297
H      4.253911   -1.291160   -0.308263
H      4.478737    0.324817   -1.035640
H      3.926285   -0.173877    2.063012
H      6.288474    0.971876    0.318507
H      6.147641    0.854357    2.255041
H      4.182603    2.266398    2.201544
H      4.315909    2.382863    0.262854
H     -3.334682    2.340334   -0.405121
