61
Lipophilicity 635 4.179999828338623
C     -2.712346    0.209237   -2.794643
C     -3.638377    1.102209   -1.966929
C     -3.349572    1.125303   -0.442745
N     -1.907449    1.147746   -0.141837
C     -1.101402   -0.003162    0.168937
O     -1.520958   -1.169028   -0.057490
C      0.227247    0.175485    0.795455
C      1.387173    0.361169   -0.003013
C      1.327098    0.290402   -1.520977
N      2.090019   -0.873304   -2.017409
C      2.385990   -0.712220   -3.449270
C      1.337837   -2.121323   -1.802634
C      2.634438    0.546556    0.643594
N      2.708963    0.522955    1.997969
C      1.622985    0.340056    2.786227
C      1.777115    0.329594    4.177650
C      0.670090    0.135642    5.005196
C     -0.594704   -0.052997    4.446971
C     -0.759263   -0.045150    3.059282
C      0.347537    0.157642    2.206512
C      3.889946    0.727775   -0.108374
C      4.134523    1.914992   -0.816479
C      5.326575    2.073956   -1.529832
C      6.283831    1.055311   -1.529953
C      6.052811   -0.121508   -0.811693
C      4.861754   -0.283965   -0.097341
C     -4.098241    0.092547    0.393057
C     -4.576264   -1.125540   -0.135626
C     -5.224470   -2.050469    0.688771
C     -5.403113   -1.777696    2.046030
C     -4.936709   -0.576862    2.582665
C     -4.290518    0.352436    1.763106
H     -2.618614   -0.806568   -2.365271
H     -1.710054    0.674022   -2.867821
H     -3.116260    0.116415   -3.824595
H     -3.532851    2.136918   -2.361924
H     -4.695712    0.811282   -2.147859
H     -3.756261    2.108058   -0.110552
H     -1.451373    2.085610   -0.071289
H      0.291147    0.262511   -1.907260
H      1.751483    1.236279   -1.919839
H      3.028241    0.180877   -3.606022
H      2.954367   -1.589441   -3.826530
H      1.452060   -0.599766   -4.044106
H      0.361373   -2.103655   -2.336769
H      1.155740   -2.279673   -0.718487
H      1.929325   -2.991204   -2.160350
H      2.755907    0.471002    4.619511
H      0.793147    0.127808    6.080517
H     -1.450714   -0.208891    5.090968
H     -1.751049   -0.206600    2.664923
H      3.403848    2.714408   -0.815224
H      5.509072    2.987487   -2.080693
H      7.205840    1.179416   -2.083056
H      6.796412   -0.907872   -0.808848
H      4.690460   -1.201375    0.452449
H     -4.458848   -1.373232   -1.178995
H     -5.587741   -2.982007    0.273870
H     -5.902697   -2.497119    2.681781
H     -5.072174   -0.366704    3.635757
H     -3.926622    1.274224    2.200537
