52
Lipophilicity 976 3.930000066757202
C      4.744815   -2.650218    2.668263
C      5.396857   -1.283710    2.844505
N      5.352724   -0.539043    1.590199
C      4.386019    0.321760    1.217234
C      4.686303    0.745158   -0.060232
N      3.911643    1.604905   -0.904823
C      2.941471    2.537218   -0.408188
O      2.964868    2.901687    0.798165
C      1.889339    3.088341   -1.323872
C      0.531314    2.552438   -0.944231
C     -0.404815    3.399908   -0.330255
C     -1.659973    2.916990    0.042225
C     -2.004780    1.584254   -0.192310
O     -3.272019    1.138493    0.212820
C     -3.991050    0.080745   -0.366530
C     -3.918379   -0.178777   -1.745643
C     -4.665457   -1.221231   -2.296588
N     -5.470791   -1.977971   -1.507047
C     -5.580545   -1.750767   -0.171276
C     -6.430225   -2.547507    0.604039
C     -6.548177   -2.316126    1.977489
F     -7.374590   -3.088059    2.724671
C     -5.818755   -1.287790    2.581460
C     -4.970191   -0.483112    1.815960
C     -4.842027   -0.705347    0.433169
C     -1.062421    0.720488   -0.777153
C      0.206162    1.197421   -1.163031
O      1.164777    0.356970   -1.753748
C      0.985349   -1.035839   -1.988578
C      5.839141    0.078835   -0.421470
N      6.228005   -0.701348    0.606462
H      5.289247   -3.236646    1.897172
H      3.684991   -2.528420    2.355279
H      4.774696   -3.205732    3.629023
H      6.454618   -1.413131    3.163009
H      4.863423   -0.718339    3.641405
H      3.519430    0.579976    1.813237
H      4.076656    1.552910   -1.935849
H      2.109610    2.815459   -2.377082
H      1.911174    4.197542   -1.269671
H     -0.163199    4.438172   -0.137631
H     -2.371647    3.583916    0.512750
H     -3.306438    0.434989   -2.394472
H     -4.611116   -1.423704   -3.357826
H     -7.002815   -3.343132    0.142176
H     -5.912800   -1.111182    3.645420
H     -4.416045    0.307094    2.308244
H     -1.313589   -0.322085   -0.908755
H      0.135187   -1.198739   -2.684312
H      1.907168   -1.446607   -2.449456
H      0.802995   -1.564794   -1.029117
H      6.353864    0.143687   -1.371247
