40
Lipophilicity 1633 3.700000047683716
C      5.561723   -0.090831   -0.901067
C      5.788360   -0.329752    0.557313
N      7.006905   -0.554000    1.085170
O      6.841141   -0.754204    2.360782
C      5.575439   -0.671051    2.700217
C      4.841095   -0.381067    1.568709
C      3.375148   -0.223542    1.500501
O      2.666900   -0.723075    2.416266
N      2.759392    0.530938    0.444742
C      1.372593    0.412159    0.086761
C      0.816342    1.287171   -0.852425
C     -0.527277    1.158192   -1.201590
C     -1.317825    0.159319   -0.616688
C     -0.717136   -0.723115    0.308824
N     -1.445119   -1.805769    0.897796
N      0.596545   -0.566769    0.628202
C     -2.749389    0.068510   -0.979726
C     -3.106062   -0.215459   -2.307697
C     -4.449987   -0.299670   -2.674752
C     -5.448376   -0.094243   -1.722448
C     -5.107753    0.202500   -0.400458
C     -3.754499    0.294356   -0.015563
O     -3.369991    0.612063    1.299463
C     -4.259329    0.847689    2.388400
F     -5.036936   -0.272784    2.619869
F     -5.068053    1.936627    2.116789
F     -3.517148    1.116221    3.522019
H      4.639420   -0.608647   -1.237688
H      5.476390    0.998526   -1.093309
H      6.417754   -0.488207   -1.485836
H      5.195673   -0.806739    3.704326
H      3.339554    1.236197   -0.060812
H      1.416966    2.065792   -1.305586
H     -0.956559    1.847200   -1.919007
H     -2.420866   -2.040044    0.612057
H     -0.980676   -2.421189    1.601873
H     -2.340976   -0.380282   -3.056714
H     -4.717824   -0.525189   -3.698914
H     -6.489777   -0.160922   -2.010020
H     -5.905780    0.363090    0.310018
