23
Lipophilicity 1630 1.8799999952316284
O      1.574630   -3.055120   -0.019547
C      0.858229   -2.017530    0.010705
C     -0.603541   -2.143514    0.092648
O     -1.133894   -3.287069    0.132291
C     -1.436568   -0.923726    0.127666
C     -2.836203   -1.003855    0.205770
C     -3.602484    0.160903    0.237619
C     -2.964999    1.399593    0.191180
N     -1.610150    1.465172    0.115681
C     -0.827565    0.349061    0.082498
C      0.653805    0.480734   -0.000572
C      1.256409    1.752734   -0.045379
C      2.645062    1.877693   -0.123285
C      3.450248    0.739696   -0.157524
C      2.871156   -0.529655   -0.114036
C      1.474059   -0.672524   -0.035493
H     -3.336379   -1.963551    0.242084
H     -4.681658    0.103911    0.297796
H     -3.547153    2.311031    0.215114
H      0.656505    2.653503   -0.020374
H      3.097980    2.860219   -0.157198
H      4.526199    0.841170   -0.217913
H      3.516310   -1.398878   -0.141851
