37
Lipophilicity 98 3.299999952316284
C     -4.394148    2.360891    0.672495
C     -3.829849    2.098572   -0.719978
N     -2.619148    1.258595   -0.636197
C     -2.730084   -0.123860   -0.647522
O     -3.871929   -0.658681   -0.731539
N     -1.608282   -0.924376   -0.559737
C     -1.714012   -2.393856   -0.560458
C     -1.802472   -2.922986    0.867039
C     -0.401340   -0.305961   -0.418103
N      0.804522   -0.874281   -0.259479
C      1.648283    0.185851   -0.135862
N      1.011561    1.387586   -0.203421
C     -0.273430    1.036132   -0.381982
C     -1.385139    1.850795   -0.487620
O     -1.257084    3.105099   -0.436802
C      3.113771    0.068981    0.071934
C      3.871108    1.215322    0.380726
C      5.252023    1.122667    0.578890
C      5.894351   -0.111718    0.468672
C      5.157103   -1.255777    0.157999
C      3.775417   -1.169817   -0.040967
H     -3.642583    2.889216    1.296399
H     -5.303394    2.993303    0.594378
H     -4.665551    1.402069    1.162590
H     -4.607235    1.611121   -1.347887
H     -3.605728    3.068641   -1.215178
H     -0.843372   -2.849946   -1.077788
H     -2.609108   -2.726581   -1.129475
H     -2.697167   -2.503532    1.373932
H     -1.885085   -4.030055    0.850840
H     -0.893828   -2.640151    1.439140
H      1.030206   -1.890721   -0.208425
H      3.396671    2.184098    0.474541
H      5.824397    2.009564    0.818472
H      6.963553   -0.181429    0.621779
H      5.657346   -2.211468    0.068005
H      3.239657   -2.073306   -0.293237
