56
Lipophilicity 1544 3.890000104904175
C      7.146717   -0.309085    0.413117
C      5.914307   -1.166792    0.688538
N      4.905140   -0.994516   -0.382169
C      4.906661   -1.884762   -1.434770
O      5.766475   -2.806468   -1.501797
C      3.960167   -1.791127   -2.454932
C      3.010190   -0.782534   -2.427746
C      3.015395    0.149571   -1.390679
C      2.066237    1.182849   -1.377511
C      2.060909    2.131051   -0.348229
C      1.037688    3.237020   -0.342771
O     -0.277995    2.713728   -0.530549
C     -0.968512    1.906807    0.388493
C     -0.480138    1.640551    1.677758
C     -1.201190    0.819968    2.543407
F     -0.719318    0.562659    3.784903
C     -2.413859    0.257459    2.138365
C     -2.936345    0.511204    0.847555
C     -2.188828    1.350236   -0.009047
C     -4.262883   -0.081859    0.318387
C     -5.070154   -0.843924    1.428965
C     -4.540939   -2.280423    1.651029
O     -3.214722   -2.429131    1.184041
C     -3.171259   -2.343040   -0.231094
C     -3.911548   -1.106422   -0.798006
O     -4.972976    1.040057   -0.220508
C     -6.322063    0.813200   -0.580566
C      3.035162    2.060615    0.653023
C      3.985463    1.037349    0.651253
C      3.989095    0.046676   -0.361072
H      7.880829   -0.435155    1.236348
H      6.870751    0.763592    0.341620
H      7.620694   -0.623134   -0.540611
H      6.233644   -2.228167    0.774955
H      5.488518   -0.938387    1.686940
H      3.962055   -2.503205   -3.271784
H      2.278049   -0.724350   -3.225077
H      1.326820    1.251101   -2.168271
H      1.264824    3.927379   -1.181781
H      1.075032    3.834747    0.593724
H      0.452541    2.062991    2.022576
H     -2.918909   -0.378750    2.848210
H     -2.552676    1.571367   -1.004966
H     -6.137560   -0.965826    1.161490
H     -5.082187   -0.263809    2.375923
H     -5.210844   -3.025465    1.161324
H     -4.559402   -2.506211    2.738067
H     -3.575665   -3.277796   -0.680351
H     -2.103742   -2.281259   -0.531963
H     -4.830811   -1.479333   -1.291567
H     -3.302846   -0.633962   -1.598981
H     -6.516643   -0.188654   -1.009922
H     -6.980282    0.989438    0.296206
H     -6.604853    1.556293   -1.353871
H      3.060387    2.800389    1.443889
H      4.715396    1.055249    1.445362
