59
Lipophilicity 163 1.149999976158142
C      1.458586   -1.283495    0.577871
C      1.303985   -0.620235   -0.794495
C      2.164505   -1.321191   -1.853063
C      1.561499    0.878980   -0.731712
C      0.604168    1.879996   -0.875213
C      1.317095    3.062149   -0.914577
N      2.628274    2.797958   -0.775547
N      2.772571    1.487326   -0.658618
C      4.057062    0.879776   -0.496913
C      4.926183    0.780907   -1.590013
C      6.194808    0.215845   -1.431370
C      6.618898   -0.239474   -0.169230
C      5.750968   -0.109020    0.929535
C      4.482874    0.456048    0.766805
C      7.960065   -0.838978    0.005508
O      8.742680   -0.950777   -0.976750
O      8.370881   -1.286669    1.258539
C     -0.861439    1.766086   -0.987645
O     -1.490345    2.606650   -1.686059
N     -1.575667    0.751934   -0.267582
C     -3.000082    0.483696   -0.498217
C     -3.892728    1.336464    0.438752
C     -5.372018    1.125120    0.038785
C     -5.743813   -0.368578    0.190930
C     -5.555910   -0.789169    1.665032
C     -4.080297   -0.586121    2.075124
C     -3.178439   -1.453660    1.171407
C     -3.347964   -1.019195   -0.306589
C     -4.827299   -1.231463   -0.711435
C     -3.700230    0.902816    1.912225
H      0.935537   -0.694190    1.360587
H      1.013451   -2.300997    0.553777
H      2.524975   -1.384297    0.859899
H      0.255231   -0.779982   -1.118758
H      3.212968   -1.442588   -1.514052
H      1.757701   -2.335524   -2.053586
H      2.150543   -0.748266   -2.804822
H      0.906200    4.056931   -1.025465
H      4.612808    1.130742   -2.565535
H      6.843261    0.138067   -2.294938
H      6.052916   -0.437027    1.916445
H      3.831736    0.567211    1.624925
H      9.286817   -1.699199    1.389107
H     -1.089134    0.305436    0.537986
H     -3.234223    0.749682   -1.554539
H     -3.633783    2.412327    0.330356
H     -6.032185    1.748719    0.681060
H     -5.533687    1.450495   -1.012450
H     -6.804662   -0.518951   -0.105321
H     -5.844270   -1.855416    1.795602
H     -6.219967   -0.184347    2.321102
H     -3.945303   -0.890130    3.135900
H     -2.121164   -1.378899    1.497891
H     -3.459344   -2.524472    1.280423
H     -2.693934   -1.641587   -0.955682
H     -4.975875   -0.953695   -1.778097
H     -5.099290   -2.305401   -0.611854
H     -4.338394    1.528205    2.574547
H     -2.647798    1.065198    2.230005
