52
Lipophilicity 1558 3.0
F     -1.423186   -5.348665    0.191547
C     -1.466075   -3.995990    0.084381
C     -1.362271   -3.198699    1.226817
C     -1.406160   -1.803707    1.120604
C     -1.554040   -1.187034   -0.139961
C     -1.686078   -2.006081   -1.279611
C     -1.631802   -3.399742   -1.167271
C     -1.618256    0.325519   -0.302711
C     -0.663519    1.094874    0.656468
O      0.640425    0.537480    0.651272
C      1.418343    1.062450   -0.406146
C      2.825856    0.555280   -0.257474
C      3.135611   -0.767689   -0.606121
C      4.424610   -1.281804   -0.385857
C      5.418303   -0.438760    0.139181
C      5.126714    0.895074    0.475241
C      3.816382    1.372692    0.308625
C      6.178941    1.770391    1.110892
F      7.442126    1.425093    0.660660
F      6.131896    1.614577    2.484713
F      5.960407    3.102639    0.801918
C      4.763118   -2.703003   -0.770829
F      3.633720   -3.505370   -0.734674
F      5.698416   -3.236042    0.102115
F      5.285847   -2.718802   -2.051081
N     -3.033400    0.784489   -0.253661
C     -3.616869    0.886966    1.098382
C     -5.147630    1.055520    1.000223
N     -5.568959    1.547138   -0.320927
C     -4.666416    2.598612   -0.800301
C     -3.252625    2.028123   -1.026800
H     -1.243439   -3.660546    2.200522
H     -1.316610   -1.217013    2.025010
H     -1.823270   -1.563722   -2.257207
H     -1.720843   -4.018272   -2.053558
H     -1.233385    0.536458   -1.325304
H     -0.658545    2.181949    0.421515
H     -1.032219    1.029564    1.698732
H      1.022166    0.726378   -1.392073
H      1.425170    2.179605   -0.395239
H      2.364068   -1.398289   -1.036568
H      6.419339   -0.825081    0.292944
H      3.565124    2.382294    0.614005
H     -3.195737    1.768521    1.634112
H     -3.398472   -0.022516    1.696403
H     -5.634802    0.072175    1.175281
H     -5.495914    1.748383    1.798941
H     -6.526698    1.959425   -0.223947
H     -4.625716    3.431624   -0.061856
H     -5.055948    3.015192   -1.754672
H     -3.131023    1.801682   -2.108739
H     -2.506677    2.806658   -0.756772
