48
Lipophilicity 99 1.7000000476837158
N     -5.079337    1.004760   -0.956181
C     -4.339735    0.073005   -0.101018
C     -4.686661   -1.388400   -0.428218
C     -5.401245   -1.525004    0.907819
C     -5.019715   -0.096812    1.267093
C     -2.850038    0.396555   -0.055205
C     -2.350289    1.333853    0.867926
C     -0.995053    1.674660    0.873550
C     -0.115666    1.101880   -0.055768
C     -0.623453    0.225967   -1.027927
C     -1.977909   -0.115675   -1.033318
C      1.318442    1.468388   -0.036541
N      1.638592    2.791665   -0.010993
C      2.920683    3.235407   -0.025219
C      3.975199    2.321251   -0.066374
C      5.309540    2.747695   -0.079661
C      6.338011    1.804505   -0.098212
C      6.021550    0.444804   -0.099195
N      4.721778    0.046512   -0.087104
C      3.691287    0.939508   -0.078777
C      2.352477    0.496893   -0.056643
C      2.051345   -0.955333    0.007106
C      2.468230   -1.812909   -1.024848
C      2.167026   -3.177210   -0.971132
C      1.450196   -3.694456    0.111405
C      1.035246   -2.848661    1.143601
C      1.335742   -1.484231    1.094922
H     -4.931802    1.975919   -0.596207
H     -4.672123    0.967886   -1.919148
H     -5.380277   -1.500752   -1.290675
H     -3.810272   -2.070719   -0.479585
H     -6.499487   -1.654977    0.791075
H     -4.924929   -2.277160    1.574396
H     -5.910361    0.554808    1.407449
H     -4.323749   -0.079513    2.133975
H     -3.009190    1.809986    1.582553
H     -0.630416    2.381769    1.608677
H      0.025219   -0.180769   -1.793577
H     -2.345487   -0.771915   -1.811639
H      3.112265    4.301013   -0.005877
H      5.554698    3.803027   -0.071312
H      7.371997    2.124186   -0.107271
H      6.810235   -0.295483   -0.108596
H      3.013479   -1.422315   -1.875261
H      2.486327   -3.833022   -1.770711
H      1.216348   -4.750474    0.150381
H      0.480737   -3.250345    1.981773
H      1.010544   -0.839764    1.902427
