56
Lipophilicity 656 3.7799999713897705
C     -8.500047    3.408854   -0.516048
O     -8.428580    2.089984    0.011418
C     -7.283363    1.280154   -0.032070
C     -6.071641    1.717229   -0.601359
C     -4.950824    0.881088   -0.613503
C     -5.023861   -0.408187   -0.059497
C     -3.910032   -1.268546   -0.035163
O     -2.689949   -0.856063   -0.595223
C     -1.424270   -1.154425   -0.067547
C     -1.229688   -1.373909    1.305483
C      0.043371   -1.655386    1.800714
C      1.146760   -1.719866    0.934960
C      2.517327   -2.004113    1.495569
C      3.308790   -0.736132    1.612792
O      2.881336    0.185809    2.361141
N      4.555042   -0.590994    0.914053
C      5.262540    0.653769    0.817268
N      4.739871    1.852892    1.156690
N      5.647515    2.775964    0.879768
C      6.740165    2.189001    0.352136
C      7.967282    2.927857   -0.073947
C      6.542158    0.818557    0.316695
C      7.455959   -0.230846   -0.234422
C      0.968908   -1.468523   -0.441799
O      2.090313   -1.503521   -1.289396
C      2.056292   -1.245395   -2.690687
C     -0.323634   -1.186193   -0.930655
C     -4.048625   -2.551333    0.520896
C     -5.271308   -2.943178    1.065920
N     -6.330566   -2.093495    1.049758
C     -6.242440   -0.849807    0.507099
C     -7.358360   -0.006118    0.516234
H     -7.750337    4.058511   -0.022720
H     -8.322844    3.388601   -1.610300
H     -9.511223    3.824603   -0.324840
H     -5.983609    2.704085   -1.034605
H     -4.031300    1.246274   -1.054562
H     -2.058556   -1.307355    1.998273
H      0.169358   -1.815754    2.864714
H      2.444177   -2.473056    2.500772
H      3.041986   -2.735257    0.843026
H      4.959106   -1.429114    0.439208
H      5.510626    3.799361    1.038373
H      7.726926    3.994923   -0.253130
H      8.735335    2.860013    0.725249
H      8.370311    2.490820   -1.012144
H      7.335648   -1.177799    0.331925
H      7.215147   -0.406631   -1.303635
H      8.513949    0.093058   -0.144302
H      1.415170   -1.996280   -3.200193
H      3.085044   -1.320698   -3.100299
H      1.673411   -0.218030   -2.880373
H     -0.487597   -0.992925   -1.982719
H     -3.217747   -3.245472    0.521695
H     -5.379912   -3.928208    1.499177
H     -8.289511   -0.348798    0.952559
