15
Lipophilicity 206 1.309999942779541
O      2.812655   -1.068523    0.938399
N      2.886685   -0.801632   -0.414420
C      1.945907   -0.264727   -1.136291
C      0.586943    0.041904   -0.649878
O      0.034667   -0.442850    0.439129
C     -1.186680    0.028879    0.522994
C     -1.464985    0.852177   -0.550141
C     -0.315340    0.855632   -1.312103
N     -2.085519   -0.285444    1.588800
O     -3.237195    0.195014    1.610819
O     -1.680913   -1.123338    2.601001
H      2.082291   -0.704724    1.533554
H      2.164725   -0.048674   -2.173924
H     -2.386884    1.379614   -0.756419
H     -0.156357    1.386692   -2.241520
