56
Lipophilicity 688 3.440000057220459
N      4.923801    8.147282    2.216658
C      4.648099    6.756418    2.050717
C      3.781318    6.319880    1.043633
C      3.528659    4.954749    0.899960
C      4.136954    4.027582    1.763359
C      5.006538    4.514017    2.755519
N      5.235565    5.848389    2.874988
C      3.896488    2.571214    1.621467
O      4.672810    1.755394    2.190577
N      2.765838    2.078877    0.883124
C      2.701206    0.764018    0.302569
C      3.858510    0.104430   -0.145059
C      3.766620   -1.157985   -0.732669
C      2.522675   -1.770722   -0.893492
C      1.347798   -1.121569   -0.471843
C      1.450878    0.151439    0.121973
C      0.022680   -1.762960   -0.658794
N     -1.116058   -1.134179   -0.215344
C     -2.364236   -1.673967   -0.366077
N     -3.524784   -0.963338    0.116412
C     -3.562598    0.500630    0.009759
C     -4.465910    1.090608    1.095787
O     -5.730790    0.458327    1.094861
C     -5.581495   -0.895874    1.471823
C     -4.775938   -1.669008    0.423007
C     -2.445850   -2.909629   -1.011866
O     -3.506924   -3.634122   -1.319595
C     -3.048575   -4.706702   -1.937296
N     -3.789884   -5.727823   -2.433487
C     -3.154264   -6.768385   -3.054485
C     -1.744447   -6.782380   -3.180798
C     -0.982348   -5.718985   -2.664825
C     -1.677545   -4.690895   -2.042177
C     -1.297873   -3.522296   -1.441397
N     -0.071052   -2.977868   -1.281870
H      5.575175    8.467319    2.967426
H      4.484031    8.860449    1.593251
H      3.311393    7.029402    0.373974
H      2.874728    4.630415    0.101489
H      5.499765    3.835932    3.440023
H      1.905995    2.671910    0.849432
H      4.830652    0.571991   -0.064488
H      4.662789   -1.660009   -1.074418
H      2.482924   -2.749163   -1.355293
H      0.560869    0.673650    0.451401
H     -2.546936    0.937858    0.122913
H     -3.954473    0.780374   -0.991849
H     -3.975862    1.014572    2.094094
H     -4.611491    2.171732    0.887490
H     -6.590539   -1.352966    1.553258
H     -5.103517   -0.985300    2.474918
H     -4.561170   -2.680424    0.831056
H     -5.377269   -1.770166   -0.506543
H     -3.736721   -7.587882   -3.453421
H     -1.252813   -7.610275   -3.674636
H      0.096603   -5.703986   -2.748467
