30
Lipophilicity 722 3.299999952316284
O      5.813941   -0.792922   -1.297067
C      4.447763   -0.557951   -1.159986
C      3.541546   -1.598728   -1.387873
C      2.167426   -1.377248   -1.254108
C      1.686446   -0.106042   -0.900251
C      0.209922    0.124445   -0.721649
C     -0.209920   -0.168479    0.721649
C     -1.686445    0.062001    0.900250
C     -2.167432    1.333204    1.254108
C     -3.541554    1.554675    1.387874
C     -4.447764    0.513893    1.159986
O     -5.813944    0.748856    1.297069
C     -3.973645   -0.753146    0.793601
C     -2.600014   -0.977120    0.659206
C      2.600020    0.933073   -0.659207
C      3.973650    0.709091   -0.793602
H      6.495677   -0.060220   -1.138095
H      3.902752   -2.580838   -1.665414
H      1.478818   -2.195657   -1.424520
H     -0.359800   -0.529867   -1.418175
H     -0.040072    1.177692   -0.978610
H      0.359798    0.485838    1.418173
H      0.040080   -1.221724    0.978613
H     -1.478830    2.151615    1.424519
H     -3.902766    2.536783    1.665415
H     -6.495676    0.016151    1.138096
H     -4.668074   -1.562989    0.609563
H     -2.248404   -1.958698    0.366120
H      2.248416    1.914653   -0.366122
H      4.668084    1.518930   -0.609564
