26
Lipophilicity 923 2.559999942779541
O     -4.986501   -1.868152    0.327868
N     -3.664201   -2.007693   -0.027394
O     -3.296338   -3.075021   -0.560920
C     -2.725422   -0.941368    0.212881
C     -3.152696    0.248662    0.811565
C     -2.252606    1.283014    1.047016
C     -0.900281    1.154301    0.689572
C      0.030560    2.270558    0.952740
O     -0.375899    3.335304    1.493816
C      1.439754    2.142299    0.582759
O      2.232091    3.097617    0.808963
C      1.919296    0.897799   -0.050661
C      3.276077    0.778643   -0.405056
C      3.752820   -0.384245   -1.003352
C      2.885427   -1.441096   -1.255633
C      1.535990   -1.343172   -0.911857
C      1.019698   -0.173365   -0.301771
C     -0.436205   -0.040306    0.080708
C     -1.372594   -1.078115   -0.148065
H     -4.187323    0.382358    1.099895
H     -2.619098    2.189713    1.512324
H      3.971977    1.587296   -0.219200
H      4.798178   -0.466058   -1.272161
H      3.259944   -2.343967   -1.721119
H      0.925069   -2.199976   -1.137054
H     -1.077715   -2.005032   -0.605866
