61
Lipophilicity 721 3.299999952316284
C     -3.839240    2.296275   -3.622091
C     -3.765044    1.971883   -2.159333
C     -4.025865    2.964406   -1.203237
C     -3.989958    2.659288    0.165429
C     -4.310017    3.714122    1.182986
C     -3.727295    1.343623    0.573906
C     -3.461570    0.344332   -0.373955
C     -3.502043    0.659615   -1.739755
C     -3.174864   -1.039494    0.050059
N     -3.791874   -2.116939   -0.490709
C     -3.214713   -3.193712    0.067214
C     -3.492100   -4.532644   -0.205297
C     -2.727777   -5.510915    0.455448
C     -1.707309   -5.133365    1.355420
C     -1.444833   -3.774406    1.606407
C     -2.230771   -2.824989    0.949752
C     -2.194296   -1.441509    0.966765
C     -1.145820   -0.585361    1.625115
C     -0.015069   -0.274471    0.645044
N      0.999240    0.554330    1.307738
C      1.908781    1.211218    0.354385
C      2.730796    0.236833   -0.519653
C      3.585276   -0.782868    0.258578
C      4.664381   -0.151620    1.154520
C      5.697143    0.602787    0.355557
C      6.661037   -0.093056   -0.389362
C      7.596604    0.620347   -1.142296
N      7.570470    1.979498   -1.152737
C      6.647886    2.679636   -0.441252
C      5.693791    2.005581    0.324951
H     -3.170733    1.628951   -4.207323
H     -3.523137    3.345199   -3.806541
H     -4.882718    2.164285   -3.976951
H     -4.260478    3.972611   -1.524310
H     -3.763362    3.521287    2.130857
H     -4.011900    4.718712    0.814235
H     -5.401279    3.711765    1.386835
H     -3.755385    1.095050    1.627899
H     -3.315970   -0.113632   -2.476386
H     -4.546538   -2.114109   -1.213298
H     -4.265438   -4.811913   -0.909124
H     -2.917461   -6.559502    0.266358
H     -1.119418   -5.894488    1.851548
H     -0.655830   -3.483264    2.286889
H     -1.591888    0.361999    1.986813
H     -0.736064   -1.110556    2.513757
H      0.437560   -1.230005    0.297806
H     -0.440610    0.263258   -0.232254
H      1.545077   -0.026332    1.984757
H      1.321459    1.879594   -0.312448
H      2.595279    1.875684    0.917803
H      2.045528   -0.317292   -1.195576
H      3.392767    0.834724   -1.182144
H      2.931881   -1.433071    0.876472
H      4.078211   -1.456062   -0.476188
H      5.174732   -0.964671    1.715305
H      4.196382    0.502887    1.920034
H      6.685367   -1.175754   -0.388202
H      8.342955    0.092640   -1.720507
H      6.653373    3.760985   -0.471442
H      4.962689    2.572596    0.886707
