46
Lipophilicity 1107 3.4100000858306885
O     -0.800657   -0.225183    1.518853
C     -0.673765   -0.891861    0.285327
C      0.786150   -1.402024    0.156615
N      1.732443   -0.261213    0.101614
C      2.452968   -0.074340    1.375703
C      3.189823    1.278495    1.388958
C      3.425084    1.834089   -0.024572
C      3.765636    0.711958   -1.010420
C      2.686859   -0.395062   -1.020741
C     -0.929699    0.070903   -0.881324
O     -0.811037   -0.364211   -2.058957
C     -1.276827    1.501308   -0.709309
C     -0.583843    2.323254    0.198688
C     -0.887356    3.684189    0.292899
C     -1.874674    4.240951   -0.522582
C     -2.557834    3.437852   -1.438447
C     -2.258800    2.075747   -1.534775
C     -1.638949   -2.094517    0.294369
C     -1.522004   -3.055818    1.321643
C     -2.386961   -4.151796    1.384718
C     -3.398976   -4.300619    0.440298
C     -3.554768   -3.347768   -0.565659
C     -2.694910   -2.247311   -0.635448
H     -1.754126    0.036202    1.627026
H      1.040880   -2.086188    0.995575
H      0.851426   -2.029856   -0.762495
H      1.744002   -0.096468    2.231491
H      3.184800   -0.901136    1.525490
H      2.595608    2.020579    1.963965
H      4.164782    1.156845    1.907116
H      2.506729    2.357531   -0.375498
H      4.250524    2.578271   -0.001313
H      4.749780    0.271167   -0.731974
H      3.869137    1.143914   -2.030694
H      3.186394   -1.390488   -0.992321
H      2.122340   -0.326537   -1.976969
H      0.210957    1.926971    0.814976
H     -0.347190    4.309760    0.990760
H     -2.101341    5.296408   -0.453393
H     -3.314668    3.873039   -2.078320
H     -2.793735    1.468635   -2.254195
H     -0.769268   -2.951818    2.090861
H     -2.277718   -4.881051    2.174631
H     -4.069956   -5.148403    0.493716
H     -4.353354   -3.454614   -1.287472
H     -2.883909   -1.519784   -1.411358
