47
Lipophilicity 827 1.909999966621399
O     -4.311991   -0.720906   -0.011755
C     -3.300657   -1.426166   -0.279129
N     -3.200205   -2.074941   -1.556023
C     -4.236914   -1.958400   -2.577458
C     -4.247274   -0.601372   -3.133856
N     -4.254917    0.469707   -3.571846
C     -2.157896   -1.533165    0.709956
C     -2.657267   -1.577755    2.185200
C     -2.393731   -0.287258    2.980546
C     -2.577140    0.957515    2.115709
C     -1.616689    0.984855    0.910128
C     -1.114697   -0.409798    0.443566
C      0.253571   -0.721775    1.037914
O      0.362560   -1.616424    1.921319
N      1.430314    0.013083    0.633526
C      2.483068    0.291078    1.619240
C      3.852151    0.027240    1.004146
C      4.012207    0.815590   -0.263947
C      5.289281    1.233607   -0.671311
C      5.451752    1.941486   -1.864480
C      4.344529    2.225534   -2.665695
C      3.071829    1.798769   -2.278521
C      2.893200    1.090673   -1.079197
C      1.505308    0.616393   -0.709408
H     -2.370708   -2.677663   -1.758058
H     -5.230465   -2.194142   -2.140995
H     -4.033189   -2.677169   -3.399076
H     -1.665654   -2.510758    0.505688
H     -2.149655   -2.412624    2.716252
H     -3.743182   -1.814760    2.227245
H     -1.362407   -0.295717    3.393977
H     -3.091763   -0.240940    3.844323
H     -3.629597    1.001970    1.762973
H     -2.408944    1.862088    2.739635
H     -0.753880    1.642664    1.155055
H     -2.143855    1.476422    0.063034
H     -0.973988   -0.361284   -0.657845
H      2.412229    1.354189    1.937615
H      2.372905   -0.340404    2.526809
H      3.955403   -1.055112    0.774091
H      4.636730    0.308176    1.740371
H      6.158641    1.012056   -0.064571
H      6.437839    2.266264   -2.170524
H      4.473293    2.771154   -3.591558
H      2.223462    2.015991   -2.916001
H      0.801272    1.473637   -0.767186
H      1.205119   -0.141608   -1.464658
