62
Lipophilicity 192 3.0999999046325684
C      8.990253   -1.867104   -0.310162
C      8.368666   -0.513973   -0.615875
O      6.980809   -0.545409   -0.295921
C      6.110983    0.542622   -0.455344
C      6.527780    1.798065   -0.962914
C      5.605985    2.859881   -1.099916
C      4.259249    2.689734   -0.736029
C      3.875187    1.446679   -0.240839
C      2.653870    0.977026    0.187618
C      1.335338    1.677334    0.284123
N      0.272246    0.723400    0.659322
C      0.604162   -0.370279    1.599974
C      1.774464   -1.218025    1.071104
C      2.870637   -0.325732    0.587657
N      4.159218   -0.688198    0.397539
C      4.766501    0.407333   -0.102721
C     -1.095178    1.064482    0.332589
O     -1.383217    2.276240    0.126027
C     -2.150315   -0.010441    0.090911
C     -1.689611   -0.876654   -1.112466
C     -2.844139   -1.638870   -1.768240
C     -3.944532   -0.695565   -2.294582
C     -3.975585    0.673718   -1.588038
C     -3.600587    0.575059   -0.097865
C     -4.671881   -0.190330    0.656636
O     -4.508060   -1.404692    0.957148
N     -5.908611    0.459666    0.980600
C     -6.997888   -0.243320    1.651666
C     -8.387653    0.047520    1.114680
C     -7.713299   -1.288690    0.814058
C     -6.870582   -0.500442    3.092058
N     -6.769486   -0.702927    4.226897
H      8.869666   -2.105086    0.767980
H     10.072766   -1.846935   -0.556538
H      8.496691   -2.656759   -0.915457
H      8.501075   -0.287989   -1.696128
H      8.877375    0.265832   -0.008600
H      7.556001    1.964945   -1.253091
H      5.939230    3.813166   -1.489060
H      3.547167    3.498316   -0.839214
H      1.110209    2.132956   -0.704671
H      1.399985    2.480298    1.048698
H      0.888060    0.074730    2.578572
H     -0.249410   -1.045200    1.788282
H      2.154120   -1.880225    1.878183
H      1.426282   -1.847274    0.224779
H      4.588345   -1.619931    0.594123
H     -2.175166   -0.654713    0.989907
H     -0.923132   -1.605876   -0.772219
H     -1.214777   -0.237295   -1.890930
H     -3.273248   -2.352882   -1.034457
H     -2.448267   -2.245657   -2.611347
H     -3.795809   -0.526122   -3.383366
H     -4.931066   -1.194030   -2.172469
H     -3.255221    1.356772   -2.090082
H     -4.984297    1.127780   -1.703641
H     -3.643662    1.603884    0.318332
H     -6.024967    1.476381    0.768991
H     -9.216659   -0.028510    1.850924
H     -8.431451    0.729454    0.238570
H     -7.359133   -1.383997   -0.234954
H     -8.145430   -2.144136    1.376507
