50
Lipophilicity 959 3.0999999046325684
C     -4.905406    2.140042   -1.839889
C     -5.301076    1.415684   -0.549582
N     -5.958215    0.140301   -0.854838
C     -6.664297   -0.610563    0.142607
O     -6.736757   -0.187420    1.327982
C     -7.281939   -1.923927   -0.210773
C     -4.080491    1.188686    0.316667
C     -3.873417    1.971822    1.463745
C     -2.740488    1.776730    2.258745
C     -1.784434    0.812183    1.911374
N     -0.639094    0.617196    2.758164
C      0.668964    0.275658    2.277312
N      1.632451   -0.095943    3.163161
C      2.890727   -0.401198    2.752455
C      3.216148   -0.327940    1.394811
C      4.500880   -0.635291    0.925366
C      4.794516   -0.545211   -0.448987
C      3.781275   -0.141766   -1.340086
C      2.500109    0.164495   -0.871198
C      2.213316    0.072365    0.492756
N      0.970522    0.368063    0.953087
C      6.153344   -0.871993   -0.952282
C      6.866756   -1.965678   -0.431760
C      8.142908   -2.255599   -0.920224
N      8.692823   -1.483537   -1.893814
C      8.029732   -0.419455   -2.417715
C      6.751003   -0.094270   -1.959189
C     -1.998064    0.015831    0.773130
C     -3.130052    0.210403   -0.022898
H     -5.808916    2.330811   -2.457214
H     -4.191080    1.529407   -2.432939
H     -4.432016    3.116282   -1.599799
H     -6.032004    2.066686   -0.019593
H     -5.910251   -0.247927   -1.824959
H     -6.485538   -2.691425   -0.307019
H     -7.824756   -1.836776   -1.175536
H     -8.000162   -2.240774    0.575690
H     -4.589606    2.733618    1.745748
H     -2.600735    2.386478    3.142862
H     -0.741239    0.817444    3.778993
H      3.631162   -0.698080    3.484688
H      5.272503   -0.925976    1.628780
H      3.974955   -0.080641   -2.403658
H      1.731385    0.468693   -1.570984
H      6.435918   -2.600943    0.331941
H      8.695514   -3.098245   -0.526533
H      8.496840    0.177584   -3.189482
H      6.242794    0.766526   -2.375095
H     -1.305190   -0.772303    0.511423
H     -3.271323   -0.410108   -0.898804
