57
Lipophilicity 686 1.75
C     -8.054962    2.302050    0.934019
N     -6.746308    1.686828    0.667418
C     -6.730102    1.066864   -0.679242
C     -5.302815    0.844336   -1.222600
N     -4.321148    0.839321   -0.130840
C     -4.318454    1.953604    0.826774
C     -5.668036    2.679240    0.819348
C     -3.325250   -0.198095   -0.036786
C     -3.698484   -1.549022   -0.137424
C     -2.739931   -2.559846   -0.035411
C     -1.396679   -2.235106    0.173334
N     -0.468369   -3.218866    0.269981
C      0.841663   -2.931454    0.474085
N      1.257425   -1.636501    0.591390
C      0.357108   -0.608133    0.496983
O      0.748522    0.588205    0.607092
C     -1.004925   -0.887171    0.284746
C     -1.974788    0.127101    0.181955
C      2.656230   -1.369823    0.797685
C      3.422542   -0.867814   -0.264705
C      4.793664   -0.623118   -0.108900
N      5.544806   -0.089349   -1.213269
C      6.931705   -0.380779   -1.453812
O      7.483505   -1.360619   -0.884462
C      7.720134    0.427437   -2.396897
O      8.962751    0.165637   -2.728646
N      9.417388    1.044076   -3.574150
C      8.423118    1.922903   -3.804388
C      7.315254    1.563921   -3.067160
C      5.391863   -0.854230    1.140700
C      4.635798   -1.348375    2.206103
C      3.264099   -1.601540    2.050951
C      2.470037   -2.136824    3.210984
H     -8.239686    3.165081    0.255931
H     -8.864973    1.553077    0.797909
H     -8.102604    2.652501    1.987329
H     -7.240075    0.081208   -0.614010
H     -7.291398    1.685977   -1.416475
H     -5.265106   -0.094369   -1.815919
H     -5.045291    1.672780   -1.918034
H     -4.137605    1.554140    1.849012
H     -3.508090    2.670670    0.576236
H     -5.697515    3.420242   -0.012408
H     -5.774082    3.233470    1.778746
H     -4.736888   -1.821555   -0.276204
H     -3.044918   -3.596132   -0.113988
H      1.553778   -3.745301    0.540562
H     -1.682401    1.166613    0.256273
H      2.949248   -0.683961   -1.221702
H      5.024356    0.460420   -1.933046
H      8.501813    2.774404   -4.466692
H      6.360687    2.070472   -3.026019
H      6.437614   -0.630567    1.303895
H      5.121406   -1.521499    3.158632
H      1.488492   -1.621737    3.277560
H      2.303781   -3.225831    3.076329
H      3.002099   -1.974958    4.172573
