52
Lipophilicity 626 2.0899999141693115
C     -3.621254    1.513070    1.098133
C     -4.978848    0.900241    0.734703
C     -5.161957   -0.480108    1.370891
N     -5.183443    0.834194   -0.726647
C     -6.279060    1.255032   -1.408470
C     -7.457671    1.938568   -0.787935
N     -6.223172    0.975395   -2.728636
C     -5.045681    0.344202   -2.889013
C     -4.411022    0.249991   -1.672329
C     -3.112270   -0.399685   -1.463952
C     -3.026260   -1.787604   -1.332830
C     -1.766536   -2.362259   -1.176566
N     -0.659297   -1.576025   -1.168459
C     -0.755396   -0.224666   -1.303013
N      0.419361    0.597958   -1.327484
C      1.725328    0.154576   -0.922036
C      1.897281   -0.724397    0.160134
C      3.179118   -1.120184    0.552331
C      4.315733   -0.628929   -0.113964
C      4.139301    0.260124   -1.189883
C      2.856474    0.655416   -1.580073
C      5.668196   -1.063884    0.313102
O      5.798958   -2.165509    0.914175
N      6.826713   -0.247995    0.067903
C      8.181161   -0.693786    0.391654
C      8.453696   -0.564180    1.892092
O      8.295781    0.764620    2.310270
N     -1.977467    0.348321   -1.467323
H     -3.628998    1.834497    2.161870
H     -2.797804    0.780860    0.976955
H     -3.421450    2.404107    0.465808
H     -5.746432    1.567017    1.182658
H     -4.369142   -1.180907    1.039666
H     -5.120414   -0.397439    2.477910
H     -6.151322   -0.897562    1.087004
H     -8.221287    2.165882   -1.561819
H     -7.134876    2.890672   -0.317680
H     -7.913726    1.277790   -0.021143
H     -4.678574   -0.030192   -3.835613
H     -3.913844   -2.408013   -1.348380
H     -1.667234   -3.434222   -1.068132
H      0.328723    1.556072   -1.735817
H      1.044902   -1.085016    0.720388
H      3.282290   -1.796500    1.392081
H      4.984516    0.636246   -1.750187
H      2.742003    1.341879   -2.410127
H      6.717801    0.708714   -0.335190
H      8.915662   -0.071952   -0.164832
H      8.321261   -1.748093    0.068961
H      9.484453   -0.919976    2.117489
H      7.747794   -1.204528    2.460419
H      9.097929    1.258167    1.997030
