50
Lipophilicity 1756 3.180000066757202
C     -5.741092   -1.195336   -1.369556
C     -5.211333    0.067676   -0.681179
N     -6.253916    0.659604    0.160674
C     -7.321197    1.453139   -0.378077
O     -7.372233    1.704601   -1.612319
C     -8.401822    1.950930    0.519492
C     -3.971088   -0.224413    0.143768
C     -2.801802    0.530464   -0.051763
C     -1.667870    0.302348    0.733548
C     -1.673409   -0.702059    1.718400
N     -0.533080   -0.943203    2.563438
C      0.836901   -0.774440    2.167342
N      1.815665   -0.842323    3.110958
C      3.125764   -0.696090    2.782283
C      3.487772   -0.468623    1.451010
C      4.823410   -0.280214    1.072189
C      5.150031   -0.030937   -0.275349
C      4.118951    0.010947   -1.235351
C      2.787805   -0.185939   -0.858413
C      2.467006   -0.418761    0.483010
N      1.172100   -0.579786    0.861081
C      6.560804    0.203201   -0.676131
C      7.601370   -0.562354   -0.120954
C      8.922441   -0.311588   -0.500967
N      9.201056    0.668674   -1.399642
C      8.218243    1.424046   -1.954885
C      6.882877    1.205335   -1.608375
C     -2.850257   -1.433155    1.936082
C     -3.987939   -1.197975    1.159694
H     -6.559209   -0.926143   -2.068794
H     -6.144709   -1.921045   -0.625189
H     -4.927778   -1.687789   -1.955084
H     -4.945527    0.790533   -1.482178
H     -6.260260    0.446552    1.185314
H     -8.936367    2.803352    0.047839
H     -9.125924    1.138177    0.715633
H     -7.967877    2.289705    1.483087
H     -2.770606    1.312300   -0.800929
H     -0.804895    0.937995    0.589707
H     -0.707097   -1.331937    3.516490
H      3.877008   -0.749172    3.560609
H      5.600781   -0.296389    1.828686
H      4.343391    0.188185   -2.279511
H      2.007144   -0.147880   -1.609129
H      7.394793   -1.355277    0.589044
H      9.727869   -0.898230   -0.077357
H      8.473312    2.199838   -2.661340
H      6.113628    1.828429   -2.044954
H     -2.887577   -2.186499    2.715049
H     -4.885257   -1.768474    1.363043
