60
Lipophilicity 1955 1.8799999952316284
C      0.556135   -5.472798    2.217853
O     -0.257177   -4.736263    1.310733
C      0.036981   -3.423955    0.928710
O      1.115620   -2.886606    1.304108
N     -0.888674   -2.682771    0.112101
C     -2.189600   -3.260617   -0.260160
C     -3.292582   -2.199758   -0.156046
N     -2.867594   -0.909117   -0.717352
C     -1.546835   -0.793261   -1.368527
C     -1.199109    0.652528   -1.804885
C      0.054743    0.688655   -2.631298
O     -0.010221    0.437905   -3.866399
N      1.327198    0.930960   -2.002517
C      2.583847    0.783310   -2.739553
C      3.761487    0.702476   -1.797742
C      3.745295   -0.212125   -0.709618
C      4.863236   -0.343771    0.132406
C      5.983301    0.432415   -0.150725
O      7.195639    0.471889    0.514547
C      8.047065    1.422021   -0.158796
O      7.250865    1.923241   -1.244452
C      6.014930    1.298168   -1.197046
C      4.926833    1.464526   -2.049863
C     -0.480103   -1.375307   -0.421500
C     -3.703084    0.227387   -0.456946
C     -4.885481    0.414602   -1.177869
C     -5.673444    1.527951   -0.885530
N     -5.280645    2.400181    0.078799
C     -4.126183    2.206540    0.775551
N     -3.349495    1.122687    0.502861
N     -3.725356    3.143874    1.786147
C     -4.378783    4.255112    2.167926
C     -3.637897    4.861251    3.158890
N     -2.527719    4.134062    3.404670
C     -2.619144    3.086190    2.553290
H      0.151198   -6.501973    2.318696
H      1.596591   -5.534000    1.833247
H      0.549031   -4.981940    3.214841
H     -2.459341   -4.109760    0.401948
H     -2.132945   -3.645026   -1.300680
H     -4.202461   -2.558054   -0.684927
H     -3.544140   -2.061973    0.918132
H     -1.571213   -1.419647   -2.289168
H     -1.076245    1.306907   -0.914936
H     -2.029107    1.066180   -2.418176
H      1.342577    1.264179   -1.006166
H      2.690742    1.641357   -3.447168
H      2.556679   -0.159025   -3.340832
H      2.872777   -0.820650   -0.520379
H      4.860051   -1.033726    0.966918
H      8.323169    2.258252    0.530445
H      8.962043    0.910094   -0.549085
H      4.988324    2.153280   -2.885083
H     -0.319279   -0.675582    0.427018
H      0.477567   -1.492253   -0.971038
H     -5.185372   -0.284393   -1.947101
H     -6.590790    1.704867   -1.430433
H     -5.320154    4.601710    1.759203
H     -3.896304    5.771739    3.676635
H     -1.867441    2.307852    2.490124
