39
Lipophilicity 609 1.399999976158142
C      4.020056   -2.433518   -0.696436
C      3.663860   -1.086633   -1.314591
O      2.275374   -0.809220   -1.147735
C      1.707983   -0.408617    0.069758
O      2.447939   -0.182417    1.067768
C      0.213622   -0.167238    0.173099
C     -0.517513   -0.871611   -1.010800
C     -2.039871   -0.835576   -0.837571
N     -2.421832   -1.541450    0.398943
C     -3.887044   -1.583725    0.521259
C     -1.836850   -0.868240    1.573119
C     -0.300245   -0.853719    1.477386
C      0.001668    1.363228    0.125060
C     -0.387444    2.123259    1.255419
C     -0.537963    3.510658    1.171909
C     -0.275771    4.175906   -0.023933
C      0.155737    3.457628   -1.136708
C      0.307156    2.070734   -1.062053
H      3.847002   -2.414554    0.399783
H      3.397882   -3.234177   -1.149408
H      5.090771   -2.659224   -0.884597
H      3.888749   -1.122185   -2.401291
H      4.278005   -0.278277   -0.861526
H     -0.203982   -1.939253   -1.058791
H     -0.256138   -0.429658   -1.993331
H     -2.496106   -1.343535   -1.716105
H     -2.399097    0.219127   -0.826821
H     -4.326719   -2.128017   -0.342075
H     -4.178368   -2.136706    1.440145
H     -4.320016   -0.559028    0.562100
H     -2.113303   -1.423581    2.496546
H     -2.237951    0.163530    1.672641
H      0.042949   -1.913354    1.487872
H      0.137032   -0.391244    2.387086
H     -0.575010    1.671152    2.215712
H     -0.850057    4.072999    2.042676
H     -0.389398    5.250671   -0.082865
H      0.386172    3.977491   -2.057754
H      0.688720    1.558375   -1.933888
