44
Lipophilicity 2069 1.5700000524520874
C     -0.499672   -2.596310   -2.230919
C      0.592555   -3.075561   -1.281603
C      1.142392   -1.929878   -0.477730
C      2.147737   -1.111262   -1.015949
C      2.643552   -0.031075   -0.283178
C      2.133863    0.247572    0.986321
C      1.114921   -0.549603    1.533972
C      0.620619   -1.636759    0.792739
N      0.538725   -0.213343    2.811982
C      0.520559   -1.217173    3.880117
C      0.178848    1.158672    3.093449
N      0.467564    1.696209    4.237801
N     -0.436868    1.972046    2.081916
C     -1.157852    1.411265    0.973846
C     -2.181236    0.481637    1.218284
C     -2.899275   -0.078245    0.161423
C     -2.602471    0.274114   -1.155175
C     -1.570142    1.183567   -1.427413
C     -1.244741    1.505428   -2.754735
C     -0.202057    2.393197   -3.027649
C      0.522457    2.966835   -1.981840
C      0.208634    2.659874   -0.655316
C     -0.841801    1.768584   -0.357980
H     -0.108914   -1.802351   -2.903070
H     -0.853459   -3.448039   -2.849557
H     -1.359871   -2.200140   -1.651543
H      0.174535   -3.854583   -0.609280
H      1.408889   -3.549534   -1.870360
H      2.546269   -1.309872   -2.003106
H      3.421987    0.595416   -0.701277
H      2.524750    1.091448    1.541201
H     -0.188974   -2.233143    1.190223
H      0.349967   -2.234042    3.472583
H     -0.298348   -1.001294    4.597848
H      1.491265   -1.206105    4.417379
H      0.949774    1.172581    5.001640
H     -0.368357    3.012726    2.160026
H     -2.425834    0.196724    2.233866
H     -3.688557   -0.790926    0.363079
H     -3.168392   -0.176858   -1.962002
H     -1.791419    1.064128   -3.579818
H      0.049049    2.634433   -4.053242
H      1.334345    3.649202   -2.200201
H      0.804984    3.110437    0.127980
