48
Lipophilicity 576 3.2200000286102295
C      8.158919    0.854967   -1.874902
C      7.680127   -0.577072   -2.078081
O      6.292428   -0.693973   -1.764935
C      5.793437   -0.714294   -0.455875
O      6.587748   -0.676086    0.526002
C      4.332212   -0.785231   -0.228225
C      3.444077   -0.804988   -1.318438
C      2.063288   -0.861835   -1.106802
C      1.541412   -0.903978    0.190963
O      0.145726   -0.958856    0.339905
C     -0.561970   -0.958809    1.581209
C     -0.564098    0.441149    2.232570
C     -1.672077    1.427248    1.785781
C     -3.082966    0.953743    1.978963
N     -3.439761    0.950785    0.545485
C     -2.060774    1.434924    0.335829
C     -4.569194    0.634549   -0.267681
C     -5.745789    0.144462    0.304062
C     -6.827174   -0.158406   -0.522202
C     -6.711296    0.045070   -1.902472
C     -7.838112   -0.303301   -2.825125
N     -5.539097    0.516706   -2.407723
N     -4.502950    0.804955   -1.615407
C      2.427323   -0.893791    1.286349
C      3.808656   -0.829832    1.076486
H      9.217736    0.941680   -2.193439
H      8.085118    1.141079   -0.805094
H      7.541939    1.551227   -2.479843
H      7.825318   -0.852942   -3.143905
H      8.279545   -1.277477   -1.456163
H      3.814525   -0.770269   -2.335568
H      1.393878   -0.864212   -1.957578
H     -1.596522   -1.308840    1.392376
H     -0.107630   -1.702604    2.271022
H     -0.661469    0.310607    3.331688
H      0.417566    0.930214    2.062550
H     -1.517359    2.453622    2.189276
H     -3.703065    1.692940    2.533575
H     -3.179192   -0.061081    2.420062
H     -2.069768    2.463641   -0.088355
H     -1.494133    0.740229   -0.316767
H     -5.822213   -0.005124    1.374146
H     -7.744155   -0.547708   -0.093937
H     -7.684994    0.176881   -3.818489
H     -7.878419   -1.404418   -2.957403
H     -8.806334    0.052477   -2.404666
H      2.062638   -0.929486    2.303721
H      4.466890   -0.818546    1.937053
