36
Lipophilicity 961 2.3399999141693115
C      6.675466    0.154323    0.930945
C      6.405264   -0.805235   -0.222894
N      5.202692   -0.407869   -0.952376
C      3.880420   -0.616484   -0.437517
O      3.720134   -1.200172    0.668563
N      2.746195   -0.199425   -1.211040
C      1.400844   -0.151787   -0.714936
N      0.326581   -0.126147   -1.547380
C     -0.706963   -0.035125   -0.691656
C     -2.062805    0.030090   -1.000385
C     -2.987090    0.137112    0.068229
C     -2.503303    0.179182    1.405957
C     -1.124173    0.114203    1.676369
C     -0.259111    0.002931    0.593212
N      1.077680   -0.064203    0.601591
C     -4.444849    0.207776   -0.205980
C     -4.939162    0.947578   -1.294171
C     -6.312180    1.005006   -1.538677
C     -7.186595    0.320666   -0.694430
N     -6.700075   -0.393685    0.353908
C     -5.367480   -0.464344    0.615797
H      6.782782    1.190884    0.546606
H      7.616067   -0.136442    1.444332
H      5.845342    0.122476    1.667165
H      7.276066   -0.785700   -0.913424
H      6.294098   -1.842961    0.159246
H      5.313396    0.001184   -1.907456
H      2.899019    0.041499   -2.215931
H     -2.387822   -0.016730   -2.032047
H     -3.190324    0.281598    2.236200
H     -0.750512    0.152702    2.691407
H      1.706350   -0.012843    1.432866
H     -4.267642    1.495247   -1.943241
H     -6.695243    1.578041   -2.373168
H     -8.253019    0.356770   -0.872507
H     -5.030051   -1.060115    1.453692
