26
Lipophilicity 56 2.4200000762939453
O      5.250734    1.006676    0.051667
N      4.591443   -0.185736   -0.142063
O      5.264906   -1.225612   -0.297883
C      3.152265   -0.232244   -0.164453
C      2.479409   -1.444146   -0.361373
C      1.085098   -1.491165   -0.383389
C      0.309911   -0.322004   -0.208381
C      0.993407    0.905382   -0.008928
C      2.400454    0.936897    0.010798
C      0.234199    2.159170    0.179523
O      0.832902    3.255292    0.357534
C     -1.228483    2.132131    0.159933
O     -1.873069    3.204551    0.321163
C     -1.933915    0.851822   -0.048055
C     -3.340940    0.829222   -0.066394
C     -4.027951   -0.365928   -0.260852
C     -3.323011   -1.551203   -0.439129
C     -1.927091   -1.550091   -0.424287
C     -1.199551   -0.350817   -0.228751
H      3.033532   -2.363986   -0.499660
H      0.643214   -2.460156   -0.539829
H      2.913719    1.877690    0.163577
H     -3.912988    1.738542    0.070072
H     -5.110317   -0.372914   -0.273304
H     -3.860722   -2.478656   -0.590065
H     -1.447153   -2.502719   -0.568482
