52
Lipophilicity 1769 2.2300000190734863
C      3.089436    1.931690   -2.205877
C      3.534879    1.072816   -1.054718
C      4.764593    1.324718   -0.424779
C      5.192390    0.541219    0.660517
C      4.356885   -0.487510    1.124987
C      3.128335   -0.737427    0.510346
C      2.703621    0.040680   -0.582533
O      1.472129   -0.176187   -1.225895
C      0.451216   -1.088490   -0.812116
C     -0.251957   -0.571787    0.480856
C     -1.431974    0.378604    0.174192
C     -0.965541    1.602511   -0.629862
C     -1.146208    1.180030   -2.085217
C     -1.688176   -0.254913   -1.993747
C     -0.541656   -1.293031   -1.991177
N     -2.355664   -0.361813   -0.693256
C     -3.719070    0.212020   -0.710507
C     -4.457133   -0.166887    0.545657
C     -4.776903    0.804531    1.509361
C     -5.444283    0.438699    2.682508
C     -5.793673   -0.896525    2.902766
C     -5.474786   -1.868840    1.950820
C     -4.807326   -1.507413    0.776481
C      6.495344    0.824720    1.311396
O      7.016314    1.966657    1.193028
N      7.189235   -0.175240    2.062570
H      3.903400    2.601633   -2.555769
H      2.227471    2.556418   -1.890705
H      2.780959    1.291520   -3.059349
H      5.394481    2.127605   -0.789230
H      4.633449   -1.087255    1.981389
H      2.514115   -1.534405    0.903983
H      0.918670   -2.076092   -0.607344
H     -0.648125   -1.446635    1.041492
H      0.472236   -0.060466    1.149666
H     -1.908190    0.686751    1.131242
H      0.085968    1.884718   -0.406218
H     -1.615039    2.475784   -0.402398
H     -1.897355    1.834366   -2.579273
H     -0.195550    1.242098   -2.657907
H     -2.376456   -0.478603   -2.839804
H      0.002627   -1.261315   -2.960371
H     -0.993619   -2.305835   -1.905307
H     -4.292309   -0.201222   -1.569661
H     -3.699943    1.316650   -0.841818
H     -4.506175    1.841768    1.355668
H     -5.688666    1.190201    3.422090
H     -6.309443   -1.177941    3.811734
H     -5.743066   -2.903041    2.123733
H     -4.560525   -2.270213    0.048200
H      6.886117   -1.173379    2.061188
H      8.074939    0.068622    2.558966
