55
Lipophilicity 829 2.6500000953674316
C      8.216716    2.398230    1.049411
O      7.113216    2.349920    0.172035
C      5.965188    1.868020    0.846601
C      5.824530    0.348656    0.675368
N      6.019899   -0.066820   -0.731472
C      6.337140   -1.501931   -0.815855
C      4.910456    0.314965   -1.640434
C      3.578882   -0.324868   -1.301215
C      3.244593   -1.587705   -1.816312
C      2.014060   -2.174494   -1.508611
C      1.085991   -1.500112   -0.703140
N     -0.164308   -2.134083   -0.384951
C     -1.408681   -1.435025   -0.239390
N     -1.535796   -0.143818   -0.653449
C     -2.716248    0.519356   -0.549014
C     -3.833596   -0.130208   -0.016581
C     -5.072554    0.513861    0.107279
C     -6.179527   -0.173501    0.641072
C     -6.022292   -1.512985    1.046636
C     -4.786181   -2.154748    0.923337
C     -3.690488   -1.468726    0.393438
N     -2.487790   -2.088380    0.269170
C     -7.495032    0.503913    0.773034
C     -8.686526   -0.180015    0.475480
C     -9.912759    0.476646    0.604722
N     -9.954186    1.770611    1.017333
C     -8.820979    2.459584    1.313170
C     -7.573378    1.842032    1.196764
C      1.423369   -0.240987   -0.177717
C      2.654175    0.345741   -0.484651
H      9.111949    2.711572    0.474191
H      8.432767    1.400236    1.489839
H      8.052297    3.150780    1.851991
H      5.075874    2.368712    0.413543
H      5.947366    2.126990    1.931902
H      6.597053   -0.125949    1.320412
H      4.842977    0.009054    1.067889
H      6.437851   -1.819817   -1.875848
H      5.556373   -2.117011   -0.317219
H      7.313083   -1.700234   -0.323561
H      4.802691    1.419634   -1.659601
H      5.186515    0.049034   -2.684596
H      3.936460   -2.119113   -2.457480
H      1.776253   -3.151418   -1.910523
H     -0.189169   -3.178041   -0.338266
H     -2.779182    1.547236   -0.883454
H     -5.178681    1.538899   -0.228237
H     -6.852157   -2.059726    1.476420
H     -4.682380   -3.184002    1.244023
H     -8.669823   -1.205587    0.129028
H    -10.832842   -0.042865    0.372893
H     -8.888054    3.487925    1.642381
H     -6.681353    2.399804    1.452510
H      0.747699    0.280174    0.487278
H      2.888541    1.320585   -0.077091
