37
Lipophilicity 431 1.100000023841858
F     -3.971119   -3.615570    0.979209
C     -4.680188   -2.839192    0.079128
F     -5.949301   -2.632773    0.591909
F     -4.784130   -3.519778   -1.119475
C     -3.977102   -1.526387   -0.155150
C     -2.557493   -1.469735   -0.161624
C     -1.874093   -0.257756   -0.415237
C     -0.395143   -0.220313   -0.414890
O      0.238037   -1.209714   -0.873685
N      0.316881    0.919923    0.099716
C      1.750212    1.013374    0.153278
C      2.366380    2.241153   -0.120369
C      3.754805    2.364089   -0.054128
C      4.542205    1.267064    0.302550
C      3.944198    0.031322    0.609132
C      2.543058   -0.082819    0.538674
C      4.760703   -1.140202    1.009961
N      4.253471   -2.354250    1.301612
N      5.302343   -3.105082    1.605941
N      6.412269   -2.389979    1.507973
N      6.100287   -1.161384    1.137631
C     -2.658338    0.868088   -0.700667
N     -2.249215    2.103283   -1.049793
C     -3.413867    2.769297   -1.258950
N     -4.512866    2.003056   -1.068557
C     -4.020048    0.807869   -0.722358
C     -4.720670   -0.364790   -0.461989
H     -1.986224   -2.368215    0.039253
H     -0.225330    1.756222    0.409591
H      1.768426    3.100538   -0.397109
H      4.222875    3.313845   -0.279076
H      5.613968    1.397945    0.342697
H      2.067875   -1.015598    0.812095
H      6.789902   -0.393539    0.987846
H     -3.457366    3.807697   -1.559609
H     -5.513205    2.279384   -1.183923
H     -5.802198   -0.377073   -0.511605
