34
Lipophilicity 1214 1.6399999856948853
C     -4.295088    0.635560    0.242103
N     -3.371837    1.248164   -0.724192
C     -1.980189    1.274855   -0.249329
C     -1.307952   -0.119312   -0.265608
C     -1.910574   -1.072132    0.790203
C     -3.239997   -1.630254    0.356613
C     -4.314582   -0.865285    0.119051
C      0.188614    0.028641   -0.047411
C      0.694252    0.527074    1.168083
C      2.070076    0.667438    1.363798
C      2.967189    0.314299    0.347199
C      4.351542    0.451903    0.534335
C      5.236253    0.096967   -0.487973
C      4.747935   -0.396186   -1.700805
C      3.371566   -0.537903   -1.899634
C      2.472004   -0.185367   -0.880940
C      1.088437   -0.323363   -1.069429
H     -4.051775    0.934227    1.285665
H     -5.317432    1.015143    0.032850
H     -3.431488    0.765929   -1.652356
H     -1.409516    1.950256   -0.923799
H     -1.927617    1.730329    0.764279
H     -1.475339   -0.569120   -1.270829
H     -1.222178   -1.931933    0.945974
H     -2.024203   -0.559095    1.769775
H     -3.333399   -2.706141    0.239796
H     -5.240767   -1.346965   -0.180746
H      0.021968    0.808157    1.968425
H      2.432139    1.052593    2.309680
H      4.747871    0.832792    1.468089
H      6.303037    0.204507   -0.339887
H      5.437861   -0.669284   -2.488806
H      3.011388   -0.921958   -2.846631
H      0.711802   -0.704539   -2.011751
