44
Lipophilicity 1817 0.6700000166893005
C      4.699251    2.317695    0.610418
C      4.669949    1.091724    1.463020
O      4.380542    1.190729    2.686091
N      4.973889   -0.185282    0.884798
C      4.856039   -1.447510    1.618264
C      3.664485   -2.273623    1.111752
C      2.291816   -1.580103    1.350033
N      1.694490   -1.443581    0.024769
C      2.621936   -1.975892   -0.903711
O      2.466285   -1.952662   -2.152828
O      3.755251   -2.463439   -0.296789
C      0.372090   -0.940937   -0.250116
C     -0.390993   -1.460650   -1.310053
C     -1.676140   -0.974440   -1.564108
C     -2.223876    0.039438   -0.763473
N     -3.546093    0.541083   -1.025783
C     -4.649007   -0.389210   -1.279187
C     -5.974227    0.266806   -0.878841
O     -6.117356    1.531632   -1.498572
C     -5.119799    2.415926   -1.021771
C     -3.725317    1.936329   -1.435405
C     -1.472702    0.548265    0.307757
F     -1.996164    1.496818    1.124636
C     -0.187819    0.059389    0.562687
H      4.401808    3.211745    1.198748
H      3.994581    2.195348   -0.238552
H      5.725031    2.470214    0.215165
H      5.232322   -0.225188   -0.127103
H      5.788054   -2.033333    1.468669
H      4.750107   -1.271612    2.710307
H      3.671717   -3.267383    1.610697
H      1.642959   -2.217228    1.989028
H      2.404312   -0.583509    1.824259
H     -0.008136   -2.260438   -1.928604
H     -2.242686   -1.385488   -2.389783
H     -4.511545   -1.322414   -0.690176
H     -4.674266   -0.646420   -2.360328
H     -6.046351    0.352685    0.229632
H     -6.809052   -0.385921   -1.210220
H     -5.179269    2.529667    0.084931
H     -5.296669    3.419385   -1.462861
H     -2.959198    2.592397   -0.970043
H     -3.621315    2.007484   -2.539730
H      0.371068    0.471504    1.391799
