76
Lipophilicity 742 3.5999999046325684
C      7.626552    1.919557    4.639075
O      6.735214    2.499688    3.691381
C      6.482276    1.971089    2.416794
C      7.105120    0.798570    1.947960
C      6.823804    0.315340    0.666710
C      5.925642    0.997880   -0.167569
C      5.605751    0.455795   -1.532272
N      4.598950   -0.596767   -1.425537
C      3.186729   -0.320761   -1.472264
O      2.800156    0.873195   -1.610447
N      2.207817   -1.386896   -1.374783
C      2.630667   -2.786203   -1.561292
C      3.164885   -3.349405   -0.274401
C      3.683900   -4.578340   -0.224908
C      0.770424   -1.046831   -1.263963
C      0.070627   -1.183303   -2.628006
C     -1.421592   -0.860335   -2.500831
N     -2.036755   -1.721264   -1.473032
C     -3.519534   -1.762072   -1.482809
C     -4.255308   -0.421733   -1.748144
C     -4.184768    0.610022   -0.592809
C     -4.885526    1.919433   -0.923939
C     -6.165852    1.956513   -1.516690
C     -6.792393    3.179311   -1.777288
C     -6.164694    4.377923   -1.430815
C     -4.910431    4.356240   -0.816284
C     -4.276248    3.137203   -0.559714
C     -4.696912    0.071796    0.731727
C     -3.920765    0.227861    1.895549
C     -4.382876   -0.248619    3.125602
C     -5.630196   -0.871093    3.212532
C     -6.420656   -1.011677    2.070317
C     -5.962996   -0.538034    0.837022
C     -1.435356   -1.527508   -0.138989
C      0.053008   -1.890156   -0.188370
C      5.292514    2.156431    0.306375
C      5.574285    2.639340    1.587623
H      8.655773    1.883743    4.222805
H      7.635440    2.542420    5.557480
H      7.285916    0.896636    4.907041
H      7.805896    0.252723    2.564636
H      7.307537   -0.591624    0.324160
H      6.526896    0.034033   -1.990713
H      5.255438    1.263281   -2.211462
H      4.944661   -1.557237   -1.207245
H      1.784907   -3.419150   -1.898301
H      3.397550   -2.849621   -2.363962
H      3.135675   -2.749052    0.630701
H      4.068739   -4.969469    0.711332
H      3.725212   -5.202815   -1.113215
H      0.661925    0.012695   -0.939196
H      0.537409   -0.484876   -3.356384
H      0.179017   -2.215863   -3.022238
H     -1.900063   -1.045225   -3.487779
H     -1.542564    0.214382   -2.240209
H     -3.819538   -2.461168   -2.292877
H     -3.907176   -2.227103   -0.550829
H     -5.312188   -0.686686   -1.951400
H     -3.889349    0.046270   -2.685856
H     -3.109722    0.853391   -0.486898
H     -6.690876    1.049564   -1.778187
H     -7.769978    3.196036   -2.244158
H     -6.653584    5.323020   -1.629993
H     -4.429616    5.284942   -0.537382
H     -3.308594    3.144658   -0.073374
H     -2.956302    0.719140    1.853986
H     -3.774343   -0.131197    4.012543
H     -5.987497   -1.238767    4.165817
H     -7.391529   -1.485435    2.140361
H     -6.598694   -0.651966   -0.029629
H     -1.926834   -2.186278    0.610353
H     -1.535299   -0.478659    0.200476
H      0.138991   -2.975249   -0.404254
H      0.514188   -1.697564    0.804349
H      4.583928    2.688267   -0.315929
H      5.083183    3.537612    1.939093
