70
Lipophilicity 1813 3.0
C      1.374451   -3.523582   -3.853526
C      2.057020   -2.492582   -2.954277
C      1.546009   -1.073281   -3.274127
O      1.906322   -2.869130   -1.574206
C      1.062443   -2.241059   -0.655372
C     -0.198805   -2.788306   -0.405990
C     -1.072618   -2.171682    0.499491
C     -0.697274   -0.959329    1.104938
C      0.570918   -0.418946    0.881467
C      1.487701   -1.097114    0.053926
N      2.842898   -0.622522   -0.097638
C      3.536247    0.191071    0.865556
O      3.176560    0.199438    2.078171
C      4.753956    0.968581    0.440358
N      4.792957    2.287914    1.109662
C      5.486232    2.234786    2.419365
C      6.907817    2.821346    2.338482
O      6.930086    4.179816    1.926916
C      5.891769    4.519554    1.016891
C      5.355903    3.319596    0.213552
C     -2.363897   -2.807812    0.839516
C     -2.375301   -4.137403    1.285871
C     -3.571552   -4.745379    1.674304
C     -4.773481   -4.035907    1.610029
C     -4.788215   -2.711713    1.138840
C     -5.980894   -1.981114    1.027124
O     -7.092549   -2.498991    1.340948
C     -5.940841   -0.675025    0.530089
C     -4.704319   -0.125989    0.120683
O     -3.592353   -0.852139    0.263092
C     -3.579484   -2.096578    0.741923
N     -4.608717    1.186008   -0.483775
C     -3.300914    1.547955   -1.059597
C     -3.258301    2.981648   -1.594414
O     -4.442351    3.292969   -2.291370
C     -5.510561    3.346593   -1.371687
C     -5.825686    1.944896   -0.829956
H      1.598093   -4.558130   -3.509489
H      1.759971   -3.420560   -4.895885
H      0.266665   -3.392927   -3.867538
H      3.143488   -2.521994   -3.188349
H      0.449354   -0.986822   -3.092105
H      2.073483   -0.302180   -2.683823
H      1.727651   -0.854115   -4.351087
H     -0.495251   -3.699786   -0.915910
H     -1.368439   -0.461790    1.797274
H      0.838984    0.516246    1.359594
H      3.392770   -0.926359   -0.934328
H      4.702174    1.089054   -0.667071
H      5.675424    0.381142    0.650161
H      5.540837    1.196269    2.825211
H      4.899090    2.828107    3.150760
H      7.377983    2.749890    3.338867
H      7.519176    2.211826    1.636205
H      5.056216    4.993383    1.576062
H      6.278712    5.282102    0.306205
H      4.551677    3.679012   -0.469544
H      6.188089    2.913965   -0.408233
H     -1.451224   -4.700260    1.358056
H     -3.569609   -5.773855    2.030012
H     -5.688815   -4.526729    1.922089
H     -6.864399   -0.120109    0.428501
H     -3.064616    0.843723   -1.885600
H     -2.507085    1.448463   -0.285059
H     -3.062216    3.704862   -0.770504
H     -2.403814    3.065430   -2.297407
H     -6.407925    3.733286   -1.890414
H     -5.299229    4.055380   -0.537251
H     -6.454092    2.067304    0.077636
H     -6.404297    1.389582   -1.598807
