41
Lipophilicity 744 1.2000000476837158
N     -4.587484   -2.076141    1.048396
C     -5.107278   -0.877109    0.459524
C     -6.494622   -0.662396    0.453376
C     -7.028008    0.509582   -0.086960
C     -6.182155    1.476264   -0.631130
C     -4.800343    1.274330   -0.636186
C     -4.247913    0.104333   -0.085086
N     -2.829355   -0.117332   -0.141876
C     -1.863762    0.871171    0.260348
O     -2.254426    1.992524    0.686849
C     -0.408738    0.596207    0.187662
C      0.094891   -0.710864    0.312923
C      1.470571   -0.950124    0.247512
C      2.371313    0.112070    0.066744
C      1.870875    1.417532   -0.049982
C      0.495798    1.658157    0.015522
N      3.789645   -0.130086   -0.005948
C      4.304976   -1.303123   -0.718427
C      5.714039   -1.009512   -1.242752
O      6.550793   -0.540437   -0.202035
C      6.076485    0.707348    0.268540
C      4.698227    0.555145    0.918953
H     -5.234011   -2.807635    1.419686
H     -3.562793   -2.234577    1.164908
H     -7.163252   -1.403087    0.873920
H     -8.098890    0.666968   -0.086286
H     -6.598219    2.379467   -1.058560
H     -4.162344    2.020404   -1.092220
H     -2.501490   -1.039626   -0.503222
H     -0.564488   -1.549305    0.491443
H      1.833422   -1.963765    0.358705
H      2.544345    2.249566   -0.210706
H      0.137777    2.675436   -0.085159
H      3.645269   -1.556579   -1.577060
H      4.340939   -2.170092   -0.023652
H      5.672013   -0.280111   -2.083915
H      6.146068   -1.948831   -1.647571
H      6.788425    1.092135    1.028771
H      6.037782    1.458740   -0.553177
H      4.313936    1.560230    1.193190
H      4.791980   -0.046878    1.848550
