36
Lipophilicity 1231 1.100000023841858
C      5.050721    0.539812    1.035366
C      4.203214    1.510980    0.222226
O      2.926414    0.944647   -0.063805
C      2.716968   -0.042130   -1.032506
O      3.668045   -0.420323   -1.769530
C      1.377221   -0.618166   -1.240172
N      1.057196   -1.327552   -2.343268
C     -0.250751   -1.622415   -2.191983
N     -0.766478   -1.123502   -1.049461
C      0.255190   -0.513345   -0.428671
C      0.097652    0.161990    0.893373
N     -0.778502    1.318145    0.715258
C     -0.246563    2.673813    0.888427
C     -2.166389    1.142814    0.351439
O     -2.907817    2.160572    0.261357
C     -2.780146   -0.197657    0.117497
C     -4.110102   -0.390605    0.539539
C     -4.771627   -1.596098    0.302233
F     -6.049533   -1.762287    0.723924
C     -4.122109   -2.627470   -0.370913
C     -2.809178   -2.458094   -0.808396
C     -2.120002   -1.253942   -0.574002
H      4.518884    0.265382    1.970914
H      6.018058    1.017590    1.297614
H      5.254785   -0.380370    0.449179
H      4.053019    2.436832    0.816475
H      4.725841    1.786368   -0.719526
H     -0.820953   -2.180001   -2.923699
H     -0.367012   -0.545304    1.613577
H      1.071362    0.443189    1.335438
H      0.836819    2.663826    1.131547
H     -0.382132    3.251314   -0.050363
H     -0.785201    3.184666    1.714175
H     -4.639765    0.397282    1.061612
H     -4.635878   -3.562406   -0.554564
H     -2.321251   -3.277554   -1.320312
