23
Lipophilicity 97 0.8700000047683716
C     -3.843484   -0.590780   -0.769283
C     -3.117763    0.603296   -0.223914
O     -3.805113    1.569119    0.205628
C     -1.626251    0.658470   -0.165198
C     -0.854273   -0.480301   -0.458612
C      0.539773   -0.417428   -0.396600
C      1.338329   -1.534951   -0.681584
C      2.731285   -1.434375   -0.608230
C      3.334236   -0.222666   -0.251079
O      4.723182   -0.140711   -0.183066
C      2.538031    0.896065    0.034722
C      1.143584    0.802732   -0.036630
O      0.393662    1.864155    0.234943
C     -0.935496    1.843469    0.186343
O     -1.563382    2.902170    0.454242
H     -3.466110   -0.832986   -1.784920
H     -4.932663   -0.384610   -0.842958
H     -3.694766   -1.460807   -0.096140
H     -1.326656   -1.416515   -0.727550
H      0.887954   -2.480355   -0.959483
H      3.343819   -2.299272   -0.829154
H      5.190886    0.721230    0.072272
H      3.001218    1.835051    0.311501
