51
Lipophilicity 889 1.909999966621399
C      2.943981   -0.603868    1.675044
C      2.546876   -0.815736    0.211544
N      1.129984   -1.182858    0.117644
C      0.075024   -0.220485    0.241718
N     -1.218444   -0.630061    0.191414
C     -2.246457    0.252472    0.302742
N     -3.609633   -0.201873    0.281355
C     -4.027297   -1.501847   -0.160823
C     -3.325897   -2.362933   -0.990479
C     -4.186684   -3.428322   -1.153053
C     -3.901712   -4.680706   -1.914516
N     -5.313296   -3.202590   -0.453028
N     -5.231616   -2.024506    0.143224
C     -1.966688    1.610180    0.494018
C     -0.626667    2.030167    0.538551
N      0.356410    1.098413    0.412239
N     -0.272104    3.417970    0.728466
C     -1.231834    4.492407    0.439220
C     -0.493008    5.791150    0.101849
O      0.469257    6.095954    1.091573
C      1.482207    5.110004    1.084108
C      0.921998    3.752407    1.516473
C      3.404519   -1.879522   -0.420086
N      4.155547   -1.584714   -1.516283
C      4.932882   -2.529173   -2.107227
C      4.966402   -3.823622   -1.590487
F      5.735610   -4.780022   -2.166322
C      4.190496   -4.112875   -0.469015
N      3.426249   -3.140978    0.093390
H      2.363417    0.235324    2.112569
H      4.023960   -0.352366    1.746149
H      2.744943   -1.520578    2.270787
H      2.714013    0.137489   -0.338470
H      0.862886   -2.185965   -0.010758
H     -4.351567    0.439365    0.643169
H     -2.350142   -2.234871   -1.438123
H     -4.846337   -5.103250   -2.316361
H     -3.216758   -4.465913   -2.761695
H     -3.427238   -5.422993   -1.239783
H     -6.136328   -3.841023   -0.380486
H     -2.780316    2.312185    0.619610
H     -1.867804    4.222237   -0.431602
H     -1.881249    4.652771    1.326879
H     -0.025877    5.722910   -0.907637
H     -1.231536    6.619423    0.060787
H      1.963748    5.031808    0.082241
H      2.274484    5.412399    1.801021
H      1.717804    2.988106    1.385502
H      0.647054    3.790459    2.592718
H      5.522837   -2.273755   -2.977332
H      4.193897   -5.108194   -0.045036
