38
Lipophilicity 84 2.5
C     -5.307217   -2.295258   -1.077673
O     -4.386536   -1.284305   -0.685734
C     -4.558446   -0.510421    0.467305
O     -5.573403   -0.688750    1.196658
N     -3.591276    0.501699    0.813690
C     -3.916897    1.500474    1.846130
C     -3.231110    2.836030    1.536839
O     -1.840035    2.640103    1.289266
C     -1.381607    1.543437    0.555630
C     -0.062574    1.497016    0.101653
C      0.381448    0.396247   -0.643355
C      1.804887    0.315083   -1.109649
O      2.594511   -0.300391   -0.095982
C      3.973658   -0.534418   -0.197332
C      4.625146   -1.148637    0.880218
C      5.999111   -1.402865    0.826656
C      6.733450   -1.044318   -0.306526
C      6.094521   -0.431196   -1.387336
C      4.720314   -0.175287   -1.337553
C     -0.509625   -0.659705   -0.884073
N     -1.785631   -0.598387   -0.418353
C     -2.246548    0.472552    0.286170
H     -6.309354   -1.849731   -1.252875
H     -4.953329   -2.765523   -2.017937
H     -5.374833   -3.074226   -0.288943
H     -5.013715    1.675481    1.896254
H     -3.573251    1.127340    2.834907
H     -3.359376    3.536876    2.388290
H     -3.698343    3.286827    0.634746
H      0.609557    2.316891    0.323766
H      2.192370    1.335888   -1.320551
H      1.863214   -0.281600   -2.046235
H      4.063535   -1.429617    1.762175
H      6.494255   -1.877742    1.663814
H      7.796919   -1.241440   -0.347178
H      6.664491   -0.153820   -2.264713
H      4.250155    0.300152   -2.187378
H     -0.188437   -1.534459   -1.434787
