46
Lipophilicity 929 1.2999999523162842
C     -7.015698   -1.411772   -0.071382
N     -5.726078   -0.853892   -0.516189
C     -4.699350   -1.921878   -0.668500
C     -3.347219   -1.607751   -0.000608
N     -2.964869   -0.208188   -0.221112
C     -3.987185    0.840044   -0.106457
C     -5.317402    0.253276    0.368384
C     -1.572775    0.162794   -0.325338
C     -1.177358    1.226366   -1.156072
C      0.169227    1.590599   -1.252001
C      1.145080    0.912418   -0.508104
N      2.526787    1.293384   -0.634518
C      3.517809    1.045018    0.378173
C      3.225148    1.329157    1.721492
C      4.193741    1.127568    2.704620
N      5.425087    0.668994    2.365313
C      5.756649    0.390545    1.076599
C      7.040936   -0.078484    0.777975
C      7.392258   -0.368419   -0.543434
C      6.456534   -0.210361   -1.568333
C      5.165950    0.248674   -1.281494
C      4.805250    0.571383    0.041246
C      0.755412   -0.159210    0.313778
C     -0.589521   -0.525534    0.408589
H     -6.922601   -1.871014    0.940570
H     -7.363352   -2.181353   -0.794584
H     -7.793487   -0.616406   -0.040700
H     -4.521096   -2.063738   -1.757819
H     -5.050408   -2.904986   -0.275082
H     -2.579923   -2.292856   -0.422806
H     -3.418233   -1.798931    1.092297
H     -3.654975    1.613047    0.621384
H     -4.137525    1.321390   -1.097352
H     -6.082387    1.060448    0.342612
H     -5.218785   -0.097300    1.422076
H     -1.907254    1.767066   -1.743830
H      0.452083    2.408954   -1.902656
H      2.817043    1.831127   -1.482341
H      2.252894    1.713918    2.004616
H      3.967400    1.341747    3.740935
H      7.771080   -0.212693    1.566681
H      8.388963   -0.724403   -0.771564
H      6.730375   -0.447550   -2.588926
H      4.462827    0.344351   -2.098118
H      1.490117   -0.721268    0.875837
H     -0.861170   -1.341351    1.066143
