43
Lipophilicity 2036 3.4000000953674316
O     -1.576899   -0.569766   -2.113343
C     -2.063929   -0.843549   -0.983086
C     -3.532466   -0.654178   -0.750220
C     -3.790180    0.653427    0.002076
C     -5.262915    0.837433    0.252180
C     -5.854141    0.325660    1.416654
C     -7.229100    0.476064    1.613130
N     -7.987513    1.105066    0.676209
C     -7.442572    1.600254   -0.466662
C     -6.071600    1.471429   -0.702630
N     -1.228324   -1.337780    0.075880
C      0.208705   -1.350495    0.031397
C      0.906585   -2.383935    0.671775
C      2.303984   -2.408952    0.663260
C      3.030991   -1.383684    0.036478
C      2.331128   -0.343189   -0.598924
C      0.933503   -0.319834   -0.591154
C      4.513226   -1.430363    0.018850
O      5.085244   -2.554148   -0.021038
C      5.347067   -0.203807    0.046284
C      4.928022    0.942428    0.747806
C      5.732722    2.085493    0.779940
C      6.965667    2.093324    0.123549
C      7.399094    0.955854   -0.561632
C      6.598027   -0.189738   -0.596730
H     -4.065765   -0.636751   -1.726306
H     -3.923310   -1.512754   -0.162074
H     -3.242972    0.644074    0.970770
H     -3.399351    1.509967   -0.590716
H     -5.257375   -0.185109    2.162452
H     -7.694134    0.089286    2.510054
H     -8.074485    2.091001   -1.194825
H     -5.645460    1.859050   -1.619517
H     -1.697035   -1.787735    0.894814
H      0.364804   -3.178275    1.169695
H      2.817821   -3.223449    1.159036
H      2.863817    0.450081   -1.107925
H      0.424289    0.515089   -1.053335
H      3.987142    0.950101    1.283409
H      5.402733    2.963571    1.319862
H      7.587756    2.978515    0.150895
H      8.356993    0.961256   -1.065530
H      6.950205   -1.060931   -1.135273
