31
Lipophilicity 356 0.6000000238418579
O      4.711911    0.931751    0.272862
C      3.995232   -0.240243    0.052837
O      4.556441   -1.230353   -0.488083
C      2.546149   -0.305850    0.415676
C      1.679878    0.183160   -0.744950
N      0.262366    0.121344   -0.376866
C     -0.466698    1.074297    0.258295
C     -0.051130    2.344965    0.670288
C     -0.984921    3.166172    1.328404
C     -2.299792    2.710891    1.567925
C     -2.696614    1.427071    1.155525
C     -1.753576    0.635194    0.502962
C     -1.824603   -0.649315    0.014044
C     -2.862840   -1.578979    0.011352
C     -2.606947   -2.843625   -0.546247
C     -1.334171   -3.149404   -1.075468
C     -0.302099   -2.193390   -1.057141
C     -0.577907   -0.936976   -0.507248
H      5.689984    0.998091    0.017665
H      2.364793    0.328521    1.309978
H      2.273043   -1.352647    0.672219
H      1.956369    1.225252   -1.013841
H      1.864813   -0.439308   -1.646591
H      0.957214    2.696166    0.499017
H     -0.691504    4.154677    1.657030
H     -3.006148    3.352997    2.077768
H     -3.699816    1.067808    1.344528
H     -3.833010   -1.341001    0.427695
H     -3.390098   -3.590286   -0.564984
H     -1.149617   -4.129325   -1.496091
H      0.673298   -2.437651   -1.455079
