59
Lipophilicity 401 0.8999999761581421
F     -1.666159   -4.479939    2.037782
C     -1.973756   -3.535850    1.111878
C     -3.116492   -3.706075    0.326912
C     -3.449660   -2.763636   -0.646604
C     -2.649450   -1.626122   -0.835460
C     -3.003977   -0.615117   -1.897411
C     -4.376108   -0.028044   -1.666332
N     -5.399871   -0.494118   -2.430079
N     -6.649591   -0.051345   -2.299646
C     -6.973590    0.898625   -1.385421
O     -8.167987    1.293811   -1.297520
C     -5.975360    1.427611   -0.551470
C     -6.271602    2.411951    0.409919
C     -5.264229    2.924326    1.228383
C     -3.956583    2.461673    1.101326
C     -3.644007    1.485746    0.153172
C     -4.646442    0.955835   -0.686722
C     -1.493606   -1.463888   -0.054515
C     -1.141808   -2.418690    0.916179
C      0.078566   -2.230219    1.735064
O      0.075489   -2.604047    2.939035
N      1.259427   -1.608847    1.191294
C      1.749263   -1.965962   -0.145157
C      2.238315   -0.709043   -0.868700
N      3.129356    0.099916   -0.020151
C      3.376588   -0.308376    1.372583
C      2.070901   -0.739004    2.054332
C      3.832868    1.205913   -0.632317
O      3.391347    1.696671   -1.708848
C      5.112852    1.767163   -0.054559
C      6.219546    0.727566   -0.042933
C      7.456347    1.559297   -0.170419
C      6.964033    2.821656   -0.854328
O      5.555551    2.867997   -0.816274
H     -3.742973   -4.577507    0.467851
H     -4.333666   -2.920173   -1.252084
H     -2.249479    0.198069   -1.960697
H     -2.980718   -1.125847   -2.884555
H     -7.390673   -0.449631   -2.918141
H     -7.279320    2.789067    0.528257
H     -5.498915    3.682345    1.963846
H     -3.178758    2.863629    1.738722
H     -2.617173    1.160284    0.087233
H     -0.871108   -0.589612   -0.197273
H      0.963666   -2.459058   -0.755157
H      2.589077   -2.686350   -0.042760
H      2.777977   -1.018191   -1.790509
H      1.361333   -0.093939   -1.165203
H      4.094275   -1.156005    1.379269
H      3.810310    0.516556    1.970850
H      2.322227   -1.267457    2.999062
H      1.479212    0.167190    2.306683
H      4.927128    2.132458    0.977688
H      6.136864    0.047422   -0.920078
H      6.225888    0.134722    0.896288
H      8.237798    1.044035   -0.769321
H      7.855596    1.800614    0.838535
H      7.378030    3.721979   -0.353265
H      7.293230    2.827962   -1.915782
