26
Lipophilicity 1574 2.7100000381469727
N      3.970832   -0.599219    1.214203
C      2.807216   -1.297353    0.777596
N      2.788143   -2.656042    0.778459
C      1.688798   -3.337046    0.365331
C      0.559808   -2.642359   -0.066950
C      0.587616   -1.240231   -0.059956
N      1.715458   -0.604318    0.358934
N     -0.546020   -0.476788   -0.514782
C     -1.422656   -0.851900   -1.481042
C     -2.367782    0.141106   -1.704267
C     -2.043113    1.154147   -0.830741
C     -2.661047    2.384047   -0.615240
C     -2.121824    3.225912    0.372264
C     -0.995096    2.820185    1.118517
C     -0.391827    1.571874    0.880242
C     -0.936273    0.757095   -0.121207
H      3.990729    0.444753    1.216609
H      4.813270   -1.125199    1.536457
H      1.690690   -4.418819    0.374469
H     -0.319166   -3.187735   -0.384354
H     -1.374368   -1.787663   -2.022623
H     -3.182842    0.121342   -2.415603
H     -3.531792    2.681386   -1.185467
H     -2.578323    4.187675    0.566713
H     -0.595722    3.471850    1.884765
H      0.455289    1.263303    1.475041
