52
Lipophilicity 1927 4.300000190734863
C     -4.216593    3.627767    3.447785
O     -4.715468    2.390984    2.952292
C     -4.155759    1.736677    1.851958
N     -3.089637    2.266895    1.191981
C     -2.541197    1.633910    0.123286
C     -3.065539    0.411360   -0.311490
C     -4.168635   -0.110818    0.374467
N     -4.686777    0.557106    1.437332
C     -2.484234   -0.289882   -1.477541
C     -2.458213    0.373249   -2.715673
C     -1.938054   -0.255258   -3.847518
C     -1.431245   -1.550840   -3.758479
C     -1.431703   -2.224368   -2.534851
O     -0.879246   -3.509765   -2.465992
C     -0.924446   -4.301979   -1.279539
C     -0.801007   -3.412766   -0.033219
C     -1.918831   -2.354247   -0.063442
C     -1.945070   -1.597459   -1.377369
N      0.514993   -2.763134    0.012171
C      0.969953   -2.043948    1.169067
O      0.432448   -2.261921    2.289458
C      2.064645   -1.051530    1.065471
C      2.805296   -0.686774    2.201433
C      3.827092    0.258682    2.100647
C      4.100370    0.846362    0.864379
O      5.123995    1.792909    0.764573
C      5.460604    2.438639   -0.459732
C      6.612254    3.408573   -0.231501
F      6.243892    4.365659    0.696683
F      7.719126    2.722683    0.234986
F      6.935370    4.033250   -1.422082
N      3.365704    0.494081   -0.226842
C      2.367766   -0.426477   -0.156648
H     -3.159494    3.510738    3.767801
H     -4.286906    4.408826    2.661306
H     -4.823686    3.941955    4.321394
H     -1.691576    2.078019   -0.379609
H     -4.622059   -1.041824    0.060209
H     -2.856892    1.376422   -2.807810
H     -1.929993    0.263374   -4.797509
H     -1.027228   -2.030825   -4.640717
H     -1.889322   -4.853099   -1.248956
H     -0.102260   -5.048189   -1.303588
H     -0.923975   -4.054129    0.867225
H     -2.899084   -2.859515    0.073092
H     -1.778201   -1.656747    0.789100
H      1.153483   -2.841613   -0.811599
H      2.600924   -1.138949    3.164049
H      4.401575    0.533244    2.976208
H      4.578780    2.997269   -0.842653
H      5.762805    1.678429   -1.212772
H      1.801258   -0.647050   -1.051222
