40
Lipophilicity 643 1.1299999952316284
C      4.621476    0.682261    1.809725
C      4.405111    0.167534    0.385083
C      5.639990   -0.617041   -0.089727
N      3.183503   -0.657472    0.353554
C      2.713646   -0.918427   -1.016508
C      1.230972   -1.331797   -1.024206
O      1.044276   -2.555448   -0.355467
C      0.321238   -0.233422   -0.450459
O     -1.040262   -0.643899   -0.550015
C     -2.140090    0.118301   -0.120340
C     -1.975090    1.394209    0.454319
C     -3.082452    2.133244    0.873916
C     -4.370030    1.617672    0.729718
C     -4.561962    0.351257    0.161393
C     -5.856943   -0.170546    0.015061
C     -6.045939   -1.433000   -0.551327
C     -4.948014   -2.183680   -0.975354
C     -3.652730   -1.677882   -0.836450
C     -3.441914   -0.407154   -0.268009
H      4.779263   -0.164840    2.511484
H      3.731638    1.258906    2.141132
H      5.506285    1.353160    1.847957
H      4.278676    1.061425   -0.266498
H      5.784459   -1.532344    0.523192
H      6.549718    0.015184   -0.006778
H      5.529559   -0.908724   -1.154529
H      3.372577   -1.572629    0.827149
H      3.314867   -1.732882   -1.478204
H      2.821720   -0.011788   -1.653249
H      0.938226   -1.485281   -2.085965
H      1.145118   -2.391590    0.618214
H      0.575294   -0.045497    0.615608
H      0.466794    0.704050   -1.030582
H     -0.992253    1.826428    0.581766
H     -2.941169    3.112216    1.313709
H     -5.215382    2.208452    1.062265
H     -6.721404    0.397241    0.338358
H     -7.046500   -1.830766   -0.661863
H     -5.101005   -3.161569   -1.413475
H     -2.821267   -2.283841   -1.174596
