43
Lipophilicity 806 4.300000190734863
C      8.147773    1.527725    0.012696
C      6.910701    0.709123   -0.209250
C      6.849739   -0.198438   -1.277115
C      5.712050   -0.988696   -1.466259
C      4.622097   -0.882984   -0.595012
O      3.504349   -1.702225   -0.811120
C      2.179930   -1.373527   -0.485807
C      1.713184   -0.047576   -0.513887
C      0.380825    0.238582   -0.201348
C     -0.508824   -0.800608    0.131801
O     -1.853979   -0.566475    0.453041
C     -2.461709    0.721359    0.484723
C     -3.901521    0.575474    0.856579
O     -4.238575    0.669568    2.067615
N     -4.869108    0.237350   -0.149225
C     -6.291666    0.251700    0.061086
C     -6.901159    1.189541    0.912222
C     -8.289797    1.179770    1.066097
N     -9.045887    0.278407    0.385517
C     -8.485443   -0.627803   -0.458263
C     -7.100954   -0.651375   -0.642173
C     -0.043160   -2.120314    0.140566
C      1.289027   -2.405390   -0.172232
C      4.697026    0.000175    0.496839
C      5.834756    0.789904    0.687823
H      8.587538    1.836056   -0.959485
H      7.915617    2.447022    0.591139
H      8.893345    0.926313    0.573485
H      7.682668   -0.294214   -1.962911
H      5.674752   -1.682755   -2.296247
H      2.372027    0.762649   -0.796817
H      0.051739    1.268100   -0.229495
H     -1.946031    1.363754    1.231496
H     -2.387866    1.199121   -0.516050
H     -4.511577   -0.120476   -1.064191
H     -6.318212    1.937393    1.432404
H     -8.767586    1.896271    1.720839
H     -9.115015   -1.329406   -0.989219
H     -6.660907   -1.373647   -1.318165
H     -0.718338   -2.929482    0.389095
H      1.632723   -3.432022   -0.163826
H      3.887439    0.062234    1.212075
H      5.878009    1.459822    1.537709
