41
Lipophilicity 1147 2.0299999713897705
C     -2.568390   -1.265869   -1.831338
C     -2.485909    0.198177   -1.373753
C     -3.647573    0.508633   -0.412858
C     -1.057531    0.535429   -0.833702
N     -0.679357   -0.280420    0.335487
C     -1.325618   -0.117292    1.643794
C      0.407299   -1.219473    0.227966
C      0.166498   -2.569140    0.534808
C      1.191342   -3.511120    0.456586
C      2.471863   -3.118132    0.075171
C      2.734543   -1.780437   -0.223593
C      1.719493   -0.807283   -0.139672
C      2.073056    0.631557   -0.491220
C      1.522467    1.677580    0.517967
C      2.649191    2.592688    1.041640
O      3.616051    1.849550    1.735694
N      0.465408    2.498428   -0.097581
C     -0.799904    2.011320   -0.585825
O     -1.674325    2.857540   -0.915944
H     -2.454681   -1.955236   -0.968294
H     -3.550047   -1.461418   -2.313579
H     -1.771805   -1.486413   -2.573489
H     -2.645688    0.821136   -2.282762
H     -4.605629    0.491571   -0.975105
H     -3.547662    1.513132    0.043679
H     -3.724617   -0.251390    0.390331
H     -0.391933    0.272851   -1.682501
H     -1.896647    0.831735    1.695335
H     -2.004850   -0.972403    1.839202
H     -0.561472   -0.090586    2.448858
H     -0.824470   -2.893751    0.824960
H      0.991008   -4.549069    0.689108
H      3.264714   -3.852163    0.010237
H      3.739395   -1.505331   -0.519495
H      3.179494    0.724798   -0.557954
H      1.733117    0.856466   -1.522659
H      1.107912    1.180251    1.416500
H      2.224497    3.375778    1.711124
H      3.139084    3.110915    0.189270
H      3.217290    1.612952    2.613572
H      0.604387    3.534439   -0.139967
