53
Lipophilicity 1215 3.5199999809265137
C     -3.815467   -0.987610    2.418040
O     -3.707998   -1.436454    1.078637
C     -4.099638   -0.454499    0.116539
C     -4.034798   -1.138892   -1.275955
C     -5.276834   -2.011549   -1.560937
O     -5.929241   -2.380061   -0.361916
C     -6.531229   -1.243999    0.239097
C     -5.583383   -0.023667    0.321248
C     -3.093245    0.710414    0.113248
C     -3.485327    2.066322    0.138832
C     -2.527889    3.083583    0.127071
F     -2.921361    4.381015    0.156031
C     -1.168550    2.771887    0.086341
C     -0.752751    1.429921    0.056270
O      0.600135    1.062289    0.011748
C      1.686242    1.983956   -0.012664
C      2.977469    1.221637   -0.078797
C      3.637208    0.847172    1.097130
C      4.821281    0.108328    1.043265
C      5.373488   -0.290545   -0.197634
N      6.546367   -1.020838   -0.280574
C      7.278219   -1.402085    0.944595
C      7.038513   -1.394975   -1.511956
O      8.104479   -2.063046   -1.609806
C      6.369755   -1.044487   -2.685745
C      5.195166   -0.309861   -2.621652
C      4.683886    0.076708   -1.382879
C      3.495610    0.820227   -1.315945
C     -1.715414    0.414743    0.069952
H     -4.851332   -1.131747    2.789329
H     -3.505085    0.070169    2.558452
H     -3.149863   -1.610644    3.049568
H     -3.957869   -0.373954   -2.081418
H     -3.121636   -1.771785   -1.338283
H     -5.979192   -1.478783   -2.243277
H     -4.959897   -2.934839   -2.090426
H     -6.836571   -1.526862    1.268350
H     -7.461565   -0.973828   -0.307986
H     -5.876040    0.677690   -0.491783
H     -5.730120    0.513160    1.283225
H     -4.524189    2.357596    0.175396
H     -0.449921    3.579910    0.078658
H      1.662779    2.616790    0.901531
H      1.595362    2.649233   -0.899208
H      3.234262    1.129371    2.062160
H      5.288648   -0.145553    1.983701
H      7.575501   -0.490501    1.506144
H      8.207915   -1.970885    0.737288
H      6.636699   -2.046910    1.582798
H      6.762891   -1.342209   -3.650543
H      4.686704   -0.043880   -3.541170
H      2.971351    1.088938   -2.226616
H     -1.383523   -0.616116    0.048158
