70
Lipophilicity 1387 3.180000066757202
C      9.091901    0.178391    1.682755
O      8.869182    1.004986    0.544654
C      7.725691    0.948424   -0.264957
C      7.640018    1.820838   -1.353538
C      6.525260    1.803098   -2.193957
C      5.473221    0.905131   -1.960087
C      4.276307    0.907770   -2.871083
C      5.540548    0.036753   -0.849151
C      6.669608    0.053709   -0.017440
N      4.454391   -0.855910   -0.545037
C      4.664986   -2.296641   -0.696541
C      3.217595   -0.359783    0.011468
C      3.141912    0.909650    0.608094
C      1.919350    1.336001    1.122622
N      0.828084    0.534904    1.030996
C      0.902573   -0.686477    0.437028
N     -0.252456   -1.532447    0.348467
C     -1.614732   -1.064700    0.364230
C     -2.635995   -1.941725    0.755851
C     -3.980289   -1.532773    0.746924
C     -4.298081   -0.233343    0.325438
C     -3.292018    0.650978   -0.090825
C     -1.955099    0.226018   -0.075658
N     -3.625450    1.988386   -0.511086
C     -3.093849    2.559770   -1.752093
C     -2.659743    4.003462   -1.487701
O     -3.723873    4.751109   -0.926927
C     -4.063108    4.233383    0.348278
C     -4.588792    2.797725    0.238799
N     -5.028277   -2.447473    1.124135
C     -4.968547   -3.856885    0.728112
C     -6.388981   -4.396519    0.521875
O     -7.204596   -4.124693    1.646878
C     -7.360856   -2.725223    1.798138
C     -6.021679   -2.069394    2.135930
N      2.093916   -1.126822   -0.046957
H      9.091782   -0.890951    1.384321
H     10.081086    0.425169    2.120548
H      8.310348    0.364041    2.449634
H      8.444136    2.517077   -1.549954
H      6.487525    2.489919   -3.031392
H      4.510455    1.387447   -3.844287
H      3.445109    1.464666   -2.392357
H      3.950159   -0.132089   -3.084906
H      6.703569   -0.621420    0.827067
H      5.550876   -2.503261   -1.337258
H      4.829569   -2.752971    0.300777
H      3.782430   -2.768063   -1.177615
H      4.008935    1.553444    0.687938
H      1.836318    2.305386    1.594511
H     -0.087643   -2.561355    0.272559
H     -2.379602   -2.941436    1.080737
H     -5.333360    0.078382    0.280119
H     -1.186649    0.904516   -0.414869
H     -3.889980    2.548478   -2.527396
H     -2.234774    1.975440   -2.141692
H     -2.367896    4.471231   -2.451322
H     -1.763834    4.024361   -0.825814
H     -3.189555    4.272160    1.037283
H     -4.855204    4.872144    0.792429
H     -5.563321    2.796112   -0.294941
H     -4.736437    2.389919    1.262531
H     -4.401751   -3.968723   -0.223264
H     -4.456347   -4.441068    1.524635
H     -6.332193   -5.496221    0.381827
H     -6.835327   -3.972600   -0.407283
H     -8.070641   -2.535922    2.628220
H     -7.796327   -2.266255    0.881491
H     -6.152665   -0.968844    2.187880
H     -5.676910   -2.418391    3.132207
