62
Lipophilicity 701 3.0
C     -1.044421   -1.903911    1.315284
O     -1.240188   -0.515295    1.463362
C     -0.741682    0.187523    0.335738
C     -1.917145    0.564387   -0.582172
N     -2.860478    1.462493    0.123340
C     -4.049136    1.731567   -0.711741
C     -4.965938    0.535925   -0.721669
C     -5.131084   -0.230185   -1.885778
C     -5.958101   -1.357439   -1.877400
C     -6.647563   -1.727465   -0.709863
C     -6.456736   -0.974148    0.461903
C     -5.628624    0.152193    0.453263
C     -7.497914   -2.972833   -0.688286
F     -8.069803   -3.193481   -1.930779
F     -6.706759   -4.058769   -0.355897
F     -8.517012   -2.853907    0.243818
C     -2.190438    2.731016    0.481307
C     -1.017379    2.466510    1.433677
C     -0.025256    1.479741    0.786897
N      1.137397    1.191616    1.659325
C      0.973078    0.761969    3.055660
C      2.491040    1.301972    1.160492
O      3.433205    1.516094    1.974113
C      2.810039    1.209235   -0.312571
C      4.155053    0.571350   -0.547426
C      5.292972    1.365245   -0.753989
C      6.544288    0.770652   -0.942322
C      6.684009   -0.629070   -0.919918
C      5.539729   -1.420850   -0.700054
C      4.289081   -0.824559   -0.511264
N      7.982205   -1.226062   -1.116458
C      8.326245   -2.528739   -1.120064
N      9.648418   -2.650096   -1.341795
N     10.097562   -1.409144   -1.471202
N      9.097930   -0.551239   -1.336283
H      0.040398   -2.150616    1.326886
H     -1.520424   -2.284402    0.384507
H     -1.518988   -2.421808    2.173621
H     -0.009351   -0.406442   -0.263255
H     -1.530937    1.046032   -1.510070
H     -2.430629   -0.373226   -0.884738
H     -3.751148    2.022124   -1.745596
H     -4.631566    2.585332   -0.297551
H     -4.609242    0.035914   -2.796750
H     -6.053815   -1.943022   -2.783474
H     -6.943635   -1.259531    1.386083
H     -5.494621    0.720726    1.365543
H     -1.828646    3.259728   -0.430813
H     -2.904571    3.403809    1.006294
H     -0.498515    3.424187    1.656141
H     -1.429894    2.068259    2.383170
H      0.334413    1.996392   -0.130691
H      1.501739   -0.202727    3.213903
H      1.401578    1.527909    3.735781
H     -0.086621    0.610608    3.333761
H      2.044763    0.601381   -0.837496
H      2.781862    2.230224   -0.751493
H      5.212635    2.445416   -0.768082
H      7.405625    1.407243   -1.102764
H      5.602076   -2.499220   -0.669608
H      3.423323   -1.451795   -0.334338
H      7.657598   -3.364791   -0.969586
