31
Lipophilicity 358 1.4500000476837158
C     -0.715918   -1.315784   -1.654868
C     -0.785909   -1.101023   -0.120844
C     -1.768028   -2.154439    0.444287
C      0.622121   -1.319109    0.455037
O      0.775750   -2.156788    1.388208
C      1.835013   -0.597795   -0.033874
C      1.772105    0.664956   -0.653772
C      2.939031    1.299852   -1.081621
C      4.169678    0.676389   -0.885127
N      4.226065   -0.537303   -0.279369
C      3.105209   -1.177710    0.147387
C     -1.326589    0.281553    0.277005
C     -2.111569    1.066216   -0.595506
C     -2.614403    2.299849   -0.180278
C     -2.356889    2.744300    1.114299
N     -1.632002    1.973717    1.964221
C     -1.126966    0.769599    1.586700
H     -0.186948   -0.484478   -2.163351
H     -1.730867   -1.399964   -2.099292
H     -0.178588   -2.260585   -1.889604
H     -1.842321   -2.076658    1.550867
H     -2.786901   -2.005826    0.024462
H     -1.433570   -3.183420    0.187860
H      0.835911    1.177796   -0.804114
H      2.889473    2.270392   -1.558303
H      5.081497    1.158336   -1.211606
H      3.207680   -2.146328    0.619423
H     -2.342442    0.740611   -1.598974
H     -3.205357    2.904254   -0.856360
H     -2.742861    3.698069    1.448371
H     -0.571406    0.191322    2.312677
