68
Lipophilicity 1140 1.0700000524520874
C     -3.561094    3.613209    1.167343
C     -2.564439    3.424910    2.316762
C     -1.428262    2.421886    2.016006
C     -0.488290    2.922135    0.910035
C     -1.973308    1.050324    1.716240
O     -2.374039    0.325175    2.666095
O     -2.070750    0.605262    0.389352
C     -2.725075   -0.602807    0.006575
C     -3.034420   -0.591729   -1.487429
C     -3.980433   -1.763127   -1.817055
C     -4.110915   -1.928872   -3.334253
C     -3.524639   -3.061352   -1.183833
C     -2.643628   -3.121179   -0.166167
C     -2.074660   -4.429046    0.197953
C     -0.782346   -4.534211    0.529750
C      0.147044   -3.336985    0.644153
C      0.511110   -3.146127    2.128928
C     -0.443693   -2.047442   -0.041444
C      0.435807   -0.786118    0.154616
C      1.893134   -0.983842   -0.307860
C      2.695527    0.332849   -0.245331
O      2.740845    0.814729    1.075132
C      4.121967    0.129499   -0.811085
C      4.919319    1.426174   -1.081289
O      4.284660    2.216244   -2.058004
C      5.238169    2.231373    0.197130
C      6.238863    3.308206   -0.088624
O      7.472199    3.060878   -0.007222
O      5.807084    4.569769   -0.485488
C     -1.941951   -1.892620    0.387511
H     -4.362382    4.310851    1.489844
H     -4.034040    2.648406    0.890917
H     -3.061378    4.048362    0.277231
H     -2.123414    4.412986    2.574089
H     -3.122373    3.076358    3.214610
H     -0.814504    2.340474    2.940713
H     -1.006675    2.971890   -0.071423
H      0.380533    2.237089    0.812942
H     -0.103581    3.932289    1.164464
H     -3.704338   -0.627924    0.540053
H     -3.528220    0.368022   -1.757618
H     -2.089682   -0.667586   -2.069713
H     -4.988705   -1.527929   -1.410473
H     -4.468708   -0.981842   -3.792946
H     -4.846025   -2.727443   -3.572734
H     -3.130137   -2.197528   -3.783326
H     -3.939560   -3.983607   -1.576302
H     -2.671392   -5.327820    0.097044
H     -0.385476   -5.515307    0.758660
H      1.077893   -3.617134    0.106786
H     -0.380817   -2.898977    2.739450
H      1.268785   -2.349004    2.266355
H      0.953976   -4.083205    2.530820
H     -0.436107   -2.240057   -1.139791
H      0.027064    0.023063   -0.482984
H      0.406564   -0.455409    1.214101
H      2.405555   -1.742275    0.318306
H      1.885492   -1.355700   -1.356033
H      2.163562    1.079746   -0.870755
H      3.196420    0.129027    1.631873
H      4.705057   -0.519511   -0.121915
H      4.047731   -0.416579   -1.777584
H      5.891995    1.099153   -1.512120
H      3.554875    2.724864   -1.618484
H      4.320228    2.702459    0.606594
H      5.648855    1.553679    0.976987
H      6.472968    5.302616   -0.698007
H     -1.993826   -1.953666    1.493567
