63
Lipophilicity 862 3.049999952316284
C     -5.466521    1.670700   -0.623930
C     -5.998247    0.301131   -0.173518
C     -7.065512    0.502159    0.915185
C     -4.841265   -0.609613    0.322931
N     -3.822918   -0.761384   -0.721503
C     -2.427122   -0.908927   -0.426124
O     -2.024799   -0.907236    0.769472
C     -1.446880   -1.122584   -1.543592
N     -0.111767   -0.589541   -1.190265
C      0.869390   -1.450030   -0.747148
O      0.644410   -2.690095   -0.670690
C      2.136931   -0.967134   -0.374307
C      2.372055    0.410095   -0.413337
C      1.374179    1.274597   -0.840796
C      0.131095    0.767969   -1.234587
C     -0.902289    1.739883   -1.651411
C     -1.550053    2.535479   -0.697585
C     -2.495665    3.478006   -1.104236
C     -2.783981    3.614897   -2.463742
N     -2.140806    2.840809   -3.378066
C     -1.211794    1.919514   -3.006728
N      3.145898   -1.874959    0.107042
C      4.549360   -1.714131   -0.135772
O      4.960050   -0.885269   -0.993912
O      5.457108   -2.517477    0.562850
C      6.872009   -2.391457    0.436876
C      7.344958   -1.123621    1.094636
C      7.277851   -0.991888    2.491215
C      7.691298    0.193390    3.107536
C      8.169851    1.254826    2.334428
C      8.234519    1.133142    0.943569
C      7.822256   -0.050608    0.323287
C     -5.342519   -1.983268    0.711971
O     -5.876784   -2.691225   -0.129833
C     -5.159399   -2.499796    2.113128
F     -5.706016   -1.607798    3.016863
F     -5.783053   -3.725991    2.263254
F     -3.811442   -2.647577    2.379538
H     -6.304159    2.322842   -0.951676
H     -4.926085    2.172758    0.207294
H     -4.777011    1.556232   -1.486315
H     -6.488311   -0.177728   -1.050692
H     -6.614607    0.948126    1.827798
H     -7.868851    1.176026    0.547753
H     -7.539659   -0.465458    1.182285
H     -4.384372   -0.119534    1.212348
H     -4.136740   -0.899405   -1.709378
H     -1.820135   -0.643024   -2.471456
H     -1.410887   -2.207466   -1.777678
H      3.315832    0.822710   -0.081997
H      1.565580    2.341054   -0.857055
H     -1.323142    2.424080    0.355570
H     -3.003512    4.093303   -0.373052
H     -3.518756    4.337596   -2.792032
H     -0.714132    1.329192   -3.765441
H      2.845480   -2.733408    0.621340
H      7.162909   -2.429780   -0.635922
H      7.351798   -3.258417    0.938445
H      6.903166   -1.805660    3.100017
H      7.638592    0.289783    4.184342
H      8.488381    2.171975    2.812775
H      8.602057    1.957157    0.345686
H      7.872179   -0.127939   -0.755658
