50
Lipophilicity 1908 3.4100000858306885
C     -5.941563    2.122830   -2.572741
O     -5.507817    2.235642   -1.220879
C     -4.594218    1.374179   -0.592793
C     -4.002103    0.309965   -1.300120
C     -3.091428   -0.549759   -0.679889
N     -2.517351   -1.631184   -1.432459
C     -1.155312   -2.062221   -1.301830
N     -0.749847   -3.200801   -1.924465
C      0.539147   -3.620706   -1.846167
C      1.472961   -2.874472   -1.129616
C      1.050923   -1.689401   -0.510983
O      1.928098   -0.894212    0.239343
C      3.296621   -0.732763   -0.023911
C      3.811930   -0.760634   -1.331591
N      5.141577   -0.578175   -1.549299
C      6.011336   -0.362340   -0.527705
C      7.374344   -0.181467   -0.790227
C      8.265224    0.044360    0.263441
C      7.798988    0.090504    1.581521
C      6.438618   -0.087390    1.854135
C      5.537219   -0.312656    0.801960
C      4.168823   -0.489399    1.041362
N     -0.252645   -1.318536   -0.605840
C     -2.800274   -0.377675    0.678639
C     -3.377740    0.676653    1.406205
O     -3.094834    0.879289    2.767240
C     -2.204208    0.077647    3.537730
C     -4.264763    1.563682    0.774338
O     -4.786573    2.604895    1.565108
C     -5.557569    3.710749    1.105617
H     -6.434571    1.141086   -2.735930
H     -5.078928    2.238997   -3.262260
H     -6.675529    2.926200   -2.785011
H     -4.233938    0.146202   -2.343869
H     -3.089886   -2.063290   -2.192207
H      0.837630   -4.536542   -2.338140
H      2.495622   -3.220622   -1.047487
H      3.156232   -0.906512   -2.178490
H      7.744823   -0.215851   -1.807319
H      9.319088    0.185031    0.058607
H      8.493054    0.267164    2.393810
H      6.092047   -0.047559    2.879712
H      3.777993   -0.450699    2.051208
H     -2.141606   -1.079585    1.169452
H     -2.167498    0.470926    4.574306
H     -1.182058    0.118793    3.105622
H     -2.565011   -0.972293    3.569445
H     -6.545784    3.367162    0.732748
H     -5.734240    4.402883    1.954923
H     -5.005002    4.261906    0.315250
