52
Lipophilicity 276 2.640000104904175
C      6.267834    4.358657    0.303879
O      4.860304    4.516189    0.441647
C      3.962152    3.452362    0.311019
C      4.271234    2.132446    0.043023
C      3.034220    1.515774    0.016496
N      2.822761    0.118257   -0.237543
C      1.524660   -0.499199   -0.306220
N      0.401278    0.232326   -0.083194
C     -0.837758   -0.318749   -0.163496
N     -2.006595    0.476795    0.071427
C     -1.934333    1.896676    0.431077
C     -1.668503    2.747378   -0.815722
C     -3.205634    2.317568    1.118962
N     -4.343319    2.527740    0.400205
C     -5.507147    2.861842    1.015109
C     -5.551794    2.977689    2.403244
F     -6.705074    3.304908    3.036030
C     -4.384032    2.745577    3.127627
N     -3.238256    2.415600    2.476925
N     -0.968111   -1.635752   -0.466912
C      0.116289   -2.426752   -0.688698
N     -0.081355   -3.820523   -0.996503
C     -1.084485   -4.213790   -1.991854
C     -1.717067   -5.549508   -1.587451
O     -0.719004   -6.521706   -1.335770
C      0.046482   -6.139018   -0.208491
C      0.829968   -4.853496   -0.493061
C      1.402323   -1.860936   -0.617736
F      2.507459   -2.598940   -0.892413
N      2.052992    2.411370    0.254496
N      2.630235    3.588332    0.433349
H      6.648475    3.648834    1.069678
H      6.760157    5.342696    0.448738
H      6.510063    3.984110   -0.713732
H      5.244293    1.685698   -0.114739
H      3.670102   -0.470772   -0.397902
H     -2.941802    0.019789   -0.035216
H     -1.092375    2.052642    1.142494
H     -1.634626    3.825204   -0.545153
H     -0.691306    2.474303   -1.267251
H     -2.463146    2.586780   -1.573826
H     -6.397617    3.032639    0.423762
H     -4.387934    2.819015    4.207602
H     -0.592370   -4.320332   -2.982791
H     -1.884430   -3.447814   -2.082434
H     -2.380974   -5.415111   -0.701254
H     -2.358321   -5.907218   -2.421192
H      0.767604   -6.951416    0.022099
H     -0.598653   -6.012005    0.690984
H      1.318865   -4.519072    0.448651
H      1.611570   -5.059106   -1.256149
H      2.114702    4.472021    0.638180
