37
Lipophilicity 1063 4.070000171661377
C     -6.170231   -0.497569    1.323955
C     -5.000385   -0.377305    0.349016
C     -5.303525    0.685119   -0.712619
O     -3.827043   -0.022084    1.084298
C     -2.504165   -0.121770    0.621420
C     -2.169172   -0.705862   -0.616018
C     -0.834729   -0.780236   -1.026005
C      0.188127   -0.276079   -0.204376
C      1.542766   -0.326562   -0.576959
O      1.878411   -0.812617   -1.692655
C      2.519763    0.190178    0.295945
C      2.092799    0.755488    1.508316
O      0.804134    0.792101    1.828280
C     -0.145966    0.306724    1.036808
C     -1.483571    0.377318    1.439122
C      3.966606    0.154796   -0.035306
C      4.757443    1.308252    0.116209
C      6.122024    1.274650   -0.187198
C      6.710601    0.090825   -0.638528
C      5.936120   -1.062549   -0.785164
C      4.570955   -1.033940   -0.483760
H     -6.345339    0.469122    1.843251
H     -7.094858   -0.793766    0.783761
H     -5.944658   -1.273987    2.085519
H     -4.866269   -1.369048   -0.134350
H     -6.221960    0.413922   -1.275616
H     -5.450499    1.677418   -0.234971
H     -4.466054    0.764542   -1.435374
H     -2.927424   -1.108959   -1.271308
H     -0.606861   -1.233670   -1.982961
H      2.814042    1.163061    2.205123
H     -1.733324    0.825515    2.393059
H      4.316091    2.236843    0.456655
H      6.723159    2.167494   -0.073297
H      7.767174    0.066529   -0.872035
H      6.394672   -1.980983   -1.128269
H      3.991149   -1.942912   -0.584574
