66
Lipophilicity 1386 2.0
C     -6.549479   -0.221852    1.163764
C     -5.866829    0.758900    0.194072
C     -5.299854    1.955899    0.973961
C     -4.767256    0.090762   -0.678951
N     -3.764460   -0.585280    0.158298
C     -2.475466   -0.020555    0.449131
O     -2.162422    1.119797    0.010172
C     -1.511024   -0.772839    1.319504
N     -0.133527   -0.693890    0.784158
C      0.715640    0.286198    1.247711
O      0.300216    1.160689    2.058401
C      2.059774    0.321209    0.841600
C      2.518567   -0.631183   -0.071170
C      1.644667   -1.586804   -0.574630
C      0.309504   -1.604179   -0.153960
C     -0.589657   -2.612059   -0.757976
C     -0.461026   -3.967448   -0.417060
C     -1.309490   -4.919877   -0.992540
C     -2.282830   -4.524657   -1.914590
C     -2.400553   -3.177767   -2.273983
C     -1.551985   -2.224362   -1.703682
N      2.941070    1.344027    1.332975
C      4.260756    1.060865    1.820283
O      4.624972   -0.131774    2.011738
C      5.209113    2.188674    2.140757
N      6.155327    2.500307    1.047504
C      7.118772    1.413668    0.794495
C      8.105034    1.854901   -0.295317
O      7.418581    2.192922   -1.487825
C      6.538011    3.276878   -1.248161
C      5.481259    2.897329   -0.202199
C     -5.375954   -0.885539   -1.673632
O     -5.522132   -2.058318   -1.358908
C     -5.849662   -0.445278   -3.034339
F     -5.204128   -1.187387   -4.004873
F     -5.593623    0.899283   -3.259560
F     -7.212990   -0.659080   -3.129044
H     -7.401686    0.279465    1.673452
H     -5.836401   -0.571754    1.938774
H     -6.955210   -1.099231    0.617429
H     -6.654692    1.156444   -0.487334
H     -4.831633    2.684701    0.277642
H     -6.117086    2.477743    1.520890
H     -4.535047    1.624754    1.710285
H     -4.264597    0.887714   -1.270066
H     -4.022166   -1.485299    0.624414
H     -1.567288   -0.362038    2.350959
H     -1.825519   -1.834276    1.415759
H      3.543747   -0.612105   -0.419944
H      2.002448   -2.301470   -1.305973
H      0.291480   -4.281053    0.295572
H     -1.213229   -5.965121   -0.725826
H     -2.936919   -5.264606   -2.357002
H     -3.143820   -2.872206   -2.998978
H     -1.640902   -1.186189   -2.001236
H      2.570161    2.315725    1.432998
H      5.775896    1.933725    3.062225
H      4.628576    3.102903    2.385716
H      7.688618    1.188890    1.723833
H      6.597774    0.491048    0.452213
H      8.723259    2.710236    0.061985
H      8.796519    1.013770   -0.511224
H      6.023474    3.532445   -2.200709
H      7.099904    4.182307   -0.923805
H      4.825622    3.776209   -0.015888
H      4.861805    2.065094   -0.605720
