54
Lipophilicity 515 1.75
C      1.267599   -3.011754   -0.450553
O      1.802020   -1.740056   -0.098877
C      1.074335   -0.538527   -0.099186
C     -0.280656   -0.488168   -0.481455
C     -0.976634    0.735471   -0.500589
C     -2.337128    0.817436   -0.871880
N     -3.055486   -0.373233   -1.235641
C     -4.112040   -0.936092   -0.434223
C     -4.369166   -0.469947    0.870614
C     -5.397804   -1.031502    1.632219
C     -6.176103   -2.064797    1.105886
F     -7.173147   -2.607926    1.846880
C     -5.924889   -2.540359   -0.183292
C     -4.897253   -1.982691   -0.951132
F     -4.675078   -2.456621   -2.203027
C     -2.988694    2.073904   -0.863682
C     -2.262656    3.207511   -0.467848
N     -0.957803    3.102648   -0.112259
C     -0.302320    1.914305   -0.118278
C      1.040398    1.864937    0.263255
C      1.731056    0.645663    0.281779
N      3.111211    0.610977    0.681780
C      3.514745   -0.130352    1.881760
C      4.807904   -0.935687    1.629875
N      5.568215   -0.457868    0.450753
C      6.960693   -0.925957    0.514298
C      5.521059    1.010039    0.338040
C      4.096439    1.434845   -0.028333
C     -4.398301    2.226075   -1.299046
O     -4.849321    1.514436   -2.236316
N     -5.260305    3.179701   -0.674368
H      0.434404   -3.278172    0.233552
H      0.911757   -2.999039   -1.502366
H      2.064166   -3.777623   -0.354565
H     -0.787941   -1.399521   -0.763846
H     -2.744620   -0.877107   -2.096683
H     -3.773999    0.321565    1.306239
H     -5.588988   -0.665833    2.632900
H     -6.527991   -3.342378   -0.589361
H     -2.722975    4.186676   -0.468278
H      1.544156    2.775589    0.563455
H      3.692640    0.600815    2.700139
H      2.706715   -0.812919    2.224957
H      4.533253   -1.999382    1.458715
H      5.429521   -0.895844    2.553966
H      6.988248   -2.032250    0.618557
H      7.501462   -0.465989    1.371535
H      7.491295   -0.669587   -0.427799
H      6.209827    1.367466   -0.459911
H      5.826164    1.487452    1.297628
H      3.956967    1.301226   -1.123610
H      3.948656    2.507496    0.219450
H     -6.238217    3.305219   -1.018161
H     -4.955392    3.715730    0.167742
