33
Lipophilicity 1621 2.6500000953674316
C      6.106777   -0.071892   -0.197993
C      4.673763    0.006087    0.303293
O      3.796327   -0.542356   -0.676774
C      2.403118   -0.624423   -0.536124
C      1.661552   -1.187668   -1.579617
C      0.270717   -1.291601   -1.488598
C     -0.405494   -0.824887   -0.348552
C      0.339905   -0.267266    0.702973
C      1.731194   -0.164748    0.611468
C     -1.879368   -0.935623   -0.252011
C     -2.700285   -1.835406   -0.923968
N     -4.001946   -1.504811   -0.732509
C     -3.923762   -0.447762    0.099970
C     -4.936430    0.588887    0.370026
C     -4.068639    1.737458    0.946113
C     -2.593311    1.265942    0.883137
N     -2.693014   -0.094825    0.406902
H      6.794063    0.354531    0.562806
H      6.210478    0.504478   -1.141681
H      6.386461   -1.130465   -0.384288
H      4.411456    1.069904    0.490585
H      4.587975   -0.569877    1.250114
H      2.166532   -1.545482   -2.468023
H     -0.274797   -1.722007   -2.318447
H     -0.146381    0.067166    1.608467
H      2.274327    0.267419    1.440729
H     -2.375003   -2.642395   -1.566684
H     -5.679583    0.224608    1.110690
H     -5.432509    0.900147   -0.574171
H     -4.359417    1.941255    1.999733
H     -4.205534    2.665212    0.349124
H     -2.126695    1.291843    1.890286
H     -2.012474    1.882354    0.163025
