33
Lipophilicity 865 2.0
C     -3.391161    0.289721   -3.062187
O     -2.365789    0.198830   -2.078068
C     -2.584489    0.173742   -0.689434
C     -3.888387    0.238660   -0.157001
C     -4.101254    0.211627    1.222420
O     -5.402046    0.277348    1.717318
C     -3.013784    0.119299    2.094028
C     -1.711816    0.053804    1.593623
O     -0.697750   -0.031739    2.446799
C      0.567711   -0.100805    2.056041
C      0.902229   -0.086970    0.695333
C     -0.139233    0.014969   -0.247113
O      0.136188    0.068044   -1.477358
C     -1.479974    0.079930    0.196383
C      2.326761   -0.173498    0.285245
C      2.735757   -1.095487   -0.694748
C      4.079975   -1.178971   -1.070206
C      5.031459   -0.348468   -0.470572
O      6.366993   -0.442391   -0.855278
C      4.633403    0.567971    0.511434
C      3.290106    0.653419    0.889596
H     -2.926841    0.289171   -4.069510
H     -3.960584    1.234507   -2.934636
H     -4.072958   -0.583433   -2.985455
H     -4.750087    0.310420   -0.806399
H     -5.592151    0.260096    2.712561
H     -3.179494    0.098687    3.164213
H      1.341904   -0.177024    2.808879
H      2.018279   -1.761544   -1.157638
H      4.383250   -1.893337   -1.825045
H      7.080318    0.144979   -0.439281
H      5.363333    1.214809    0.981309
H      3.000130    1.373633    1.644745
