28
Lipophilicity 1950 2.7100000381469727
O      1.752153    3.175806    0.274432
C      1.532212    1.941025    0.164853
C      0.268128    1.246695    0.359409
N     -0.881926    1.776627    0.624109
C     -2.047301    0.941881    0.722941
C     -3.270517    1.512202    1.093606
C     -4.415062    0.716992    1.197466
C     -4.345681   -0.652288    0.927724
C     -3.131543   -1.234084    0.551933
C     -1.972971   -0.449954    0.450389
C     -0.673703   -1.089311    0.004804
N      0.433558   -0.148040    0.141722
C      1.802704   -0.308588   -0.233072
C      2.446095   -1.492219   -0.595376
C      3.808420   -1.429168   -0.937757
C      4.496562   -0.197022   -0.917245
C      3.829924    0.986630   -0.555573
C      2.481529    0.900783   -0.215713
H     -3.334409    2.572574    1.303223
H     -5.358042    1.163168    1.485932
H     -5.235574   -1.263389    1.006133
H     -3.093817   -2.294938    0.336996
H     -0.765104   -1.392998   -1.059711
H     -0.465783   -1.989498    0.621592
H      1.914243   -2.434421   -0.611740
H      4.332844   -2.332534   -1.220803
H      5.544389   -0.162305   -1.185687
H      4.348672    1.936373   -0.545745
