46
Lipophilicity 1895 2.880000114440918
C      2.184664    2.463068    3.564073
C      2.211597    1.649332    2.304925
C      3.439524    1.420406    1.637222
C      3.478078    0.692574    0.435047
C      2.271910    0.213392   -0.084716
C      1.080551    0.441442    0.557656
C      1.009366    1.164313    1.748494
C      0.087108   -0.148404   -0.198612
C      0.740066   -0.746113   -1.279817
C      0.078206   -1.547218   -2.364047
N      2.076667   -0.500004   -1.216495
C      3.107176   -0.975183   -2.145136
C      3.722973   -2.236054   -1.629106
O      3.189181   -3.348980   -1.881927
O      4.864645   -2.176510   -0.835369
C     -1.356803   -0.183885    0.117782
C     -1.765795   -0.837370    1.288203
C     -3.125062   -0.914259    1.608579
C     -3.569198   -1.626884    2.845636
N     -4.048155   -0.359576    0.780027
C     -3.695664    0.294587   -0.357917
C     -4.688367    0.861419   -1.165541
C     -4.337899    1.554470   -2.325714
C     -2.994627    1.691885   -2.681055
C     -1.993304    1.132080   -1.882834
C     -2.330487    0.410806   -0.718788
H      1.288806    2.219157    4.174162
H      2.163146    3.542076    3.305028
H      3.086765    2.255689    4.179029
H      4.363507    1.807113    2.049134
H      4.420559    0.518089   -0.065615
H      0.055578    1.346168    2.228345
H      0.082512   -0.964975   -3.309256
H      0.624420   -2.500600   -2.516899
H     -0.970842   -1.791584   -2.097091
H      3.891920   -0.199665   -2.272510
H      2.671936   -1.154277   -3.151523
H      5.289553   -3.020582   -0.470188
H     -1.031231   -1.295861    1.940857
H     -3.024143   -1.227712    3.726513
H     -3.358776   -2.712274    2.746477
H     -4.658720   -1.485180    3.007510
H     -5.732457    0.769941   -0.892392
H     -5.108468    1.993145   -2.946510
H     -2.727583    2.238774   -3.575934
H     -0.962832    1.273223   -2.179708
