62
Lipophilicity 714 2.630000114440918
C     -3.173952   -2.370325   -1.287417
C     -3.418684   -2.120553    0.206930
C     -2.090856   -2.212766    0.979984
C     -4.166320   -0.777588    0.438673
N     -3.318111    0.369622    0.084515
C     -3.390047    1.028207   -1.192321
O     -4.333209    0.764779   -1.988610
C     -2.379332    2.071955   -1.589035
N     -1.041846    1.777029   -1.027793
C     -0.245758    0.859196   -1.675959
O     -0.656342    0.284795   -2.723376
C      1.025500    0.536882   -1.181156
C      1.472503    1.197535   -0.039357
N      0.665798    2.081754    0.587097
C     -0.588195    2.362750    0.140299
C     -1.417568    3.354577    0.945951
C     -1.141042    4.783223    0.466556
C     -1.136589    3.234040    2.450978
N      1.868161   -0.401496   -1.873621
C      2.772466   -1.292255   -1.208805
O      2.636716   -1.537938    0.021957
O      3.786613   -1.911803   -1.946787
C      4.760068   -2.777529   -1.364724
C      5.683948   -2.004236   -0.462360
C      6.504799   -0.996652   -0.995148
C      7.352886   -0.264067   -0.159035
C      7.387698   -0.531995    1.212445
C      6.572529   -1.532060    1.750232
C      5.722113   -2.266360    0.917978
C     -4.648394   -0.662360    1.875191
O     -3.976392   -0.055613    2.697283
C     -5.918383   -1.327088    2.338717
F     -6.554190   -1.988416    1.302393
F     -5.618300   -2.242635    3.330799
F     -6.775750   -0.370217    2.851926
H     -2.754429   -3.388257   -1.439830
H     -4.127852   -2.303976   -1.853055
H     -2.457687   -1.629416   -1.699868
H     -4.073979   -2.945500    0.567266
H     -2.257517   -2.063626    2.066802
H     -1.643920   -3.220993    0.842618
H     -1.362114   -1.456750    0.616137
H     -5.072730   -0.769002   -0.205567
H     -2.547855    0.628259    0.740812
H     -2.318869    2.114282   -2.699586
H     -2.747507    3.076983   -1.308466
H      2.467127    1.025386    0.349632
H     -2.499340    3.139974    0.834652
H     -1.367828    4.883034   -0.615626
H     -1.779346    5.503336    1.021317
H     -0.074971    5.049832    0.629131
H     -1.821369    3.897690    3.020590
H     -0.090905    3.525402    2.688117
H     -1.306626    2.188341    2.788189
H      1.799009   -0.470300   -2.914339
H      5.357713   -3.238709   -2.178352
H      4.250785   -3.602770   -0.820551
H      6.484387   -0.778321   -2.056255
H      7.984119    0.510726   -0.574544
H      8.045159    0.035663    1.857684
H      6.599128   -1.737736    2.812683
H      5.094878   -3.035945    1.349730
