33
Lipophilicity 647 0.05000000074505806
O      3.342319   -3.068559    1.305617
C      3.328407   -2.183701    0.232235
O      3.552021   -2.603885   -0.934363
C      2.994393   -0.747854    0.456774
O      1.598505   -0.557876    0.250156
C      0.932386    0.674662    0.353707
C      1.609648    1.851462    0.724062
C      0.920011    3.058505    0.848172
C     -0.456616    3.122980    0.587111
C     -1.140043    1.947003    0.238857
C     -0.455130    0.726794    0.102621
C     -1.205522   -0.490272   -0.292630
C     -2.387063   -0.844444    0.381737
C     -3.096423   -1.989870    0.009879
C     -2.637720   -2.790055   -1.039388
C     -1.466913   -2.443861   -1.724284
C     -0.754899   -1.295259   -1.354647
C     -0.996942   -3.265129   -2.809114
N     -0.618786   -3.925279   -3.681126
C     -1.210833    4.416397    0.770904
F     -0.387780    5.503553    0.532267
F     -1.684225    4.486365    2.067723
F     -2.281046    4.485114   -0.104300
H      3.548887   -4.050499    1.166564
H      3.263582   -0.466616    1.497556
H      3.571620   -0.118298   -0.254735
H      2.670652    1.842364    0.932240
H      1.465008    3.942797    1.154040
H     -2.208041    1.981670    0.058769
H     -2.752285   -0.241489    1.204022
H     -4.002253   -2.258928    0.537711
H     -3.195913   -3.675971   -1.317612
H      0.140994   -1.021822   -1.900525
