54
Lipophilicity 653 1.090000033378601
O      8.763941    1.373675   -2.039027
C      8.018334    0.189198   -1.963704
C      6.988710    0.271954   -0.819161
O      7.634840    0.441209    0.420844
C      6.080655   -0.941454   -0.776446
O      6.547961   -2.065052   -1.116916
N      4.719407   -0.853440   -0.299672
C      4.281573    0.317142    0.481074
C      3.001981    0.030825    1.276741
C      1.976677   -0.637669    0.401423
C      2.375457   -1.603516   -0.434974
C      3.821742   -2.003796   -0.510705
C      0.541329   -0.303181    0.537617
C     -0.392438   -1.312334    0.820139
C     -1.746484   -1.002428    0.973598
C     -2.197106    0.320637    0.837746
C     -1.261807    1.330126    0.547702
C      0.094757    1.021919    0.395492
F      0.966175    2.017678    0.091241
N     -3.592614    0.631042    1.019954
C     -4.485467   -0.026626    1.969953
C     -5.814049    0.782499    1.914904
C     -7.017659   -0.080748    1.508848
O     -6.822980   -0.676606    0.224523
C     -7.060037   -0.005125   -0.978314
C     -6.773449   -0.503061   -2.226222
C     -7.175883    0.506301   -3.072153
O     -7.654044    1.494126   -2.349248
N     -7.602842    1.222317   -1.078633
O     -5.590328    1.813431    0.958840
C     -4.317818    1.706684    0.448944
O     -3.880811    2.446016   -0.473403
H      9.469692    1.312943   -1.343072
H      8.698122   -0.685243   -1.831579
H      7.480371    0.054205   -2.928264
H      6.366349    1.172251   -1.011104
H      8.166309   -0.378892    0.598725
H      4.099955    1.167931   -0.207722
H      5.073356    0.609409    1.202200
H      2.614364    0.978103    1.704673
H      3.240300   -0.647998    2.123914
H      1.657428   -2.123642   -1.058568
H      4.002658   -2.453186   -1.510835
H      4.026477   -2.771311    0.264819
H     -0.070363   -2.340513    0.935099
H     -2.442391   -1.802096    1.189386
H     -1.570714    2.363114    0.461896
H     -4.633594   -1.088257    1.683634
H     -4.048777    0.023879    2.989607
H     -6.014614    1.245868    2.905615
H     -7.143013   -0.892406    2.257243
H     -7.948532    0.529056    1.517862
H     -6.333847   -1.457315   -2.483370
H     -7.117260    0.503691   -4.151163
