33
Lipophilicity 1964 2.200000047683716
O      1.644379   -0.745490    1.266275
C      1.785062   -0.017069    0.246043
N      0.641755    0.307823   -0.567922
C     -0.708336   -0.058633   -0.235707
C     -1.182440   -0.018504    1.084221
C     -2.508184   -0.354668    1.364609
C     -3.369461   -0.719460    0.315183
N     -2.889832   -0.724735   -0.960248
C     -1.603552   -0.400719   -1.255875
N     -4.745303   -1.075023    0.554644
C     -5.656178   -1.391927   -0.383175
C     -6.845075   -1.672412    0.249094
N     -6.690309   -1.536173    1.580732
C     -5.399992   -1.171817    1.733054
C      3.139286    0.482377   -0.094861
C      4.080054    0.698054    0.928854
C      5.363225    1.165023    0.628758
C      5.727133    1.414107   -0.698913
C      4.804470    1.188878   -1.726378
C      3.519803    0.722977   -1.428817
C      7.049069    1.893089   -1.007596
N      8.111795    2.278153   -1.255754
H      0.786052    0.795540   -1.478950
H     -0.540985    0.299274    1.895191
H     -2.848272   -0.313878    2.388994
H     -1.274679   -0.419709   -2.286764
H     -5.474660   -1.418426   -1.450107
H     -7.770636   -1.960247   -0.231028
H     -4.957537   -0.987011    2.701514
H      3.818394    0.517043    1.964222
H      6.070732    1.331800    1.432243
H      5.080370    1.365955   -2.759136
H      2.843852    0.525806   -2.249112
