47
Lipophilicity 1141 1.7100000381469727
C     -2.585593    3.656829    1.391517
C     -3.164809    2.337041    0.994158
C     -4.544378    2.112657    1.072322
C     -5.054723    0.865866    0.707995
C     -4.190994   -0.141383    0.273107
C     -2.812478    0.113656    0.205307
N     -2.342838    1.337059    0.575870
C     -1.868635   -0.933383   -0.237841
N     -2.225947   -2.227217   -0.439833
N     -1.122591   -2.854911   -0.803703
C     -0.953260   -4.085175   -1.534431
C      0.492051   -3.973324   -2.085217
C      0.999976   -2.548439   -1.736130
C     -0.107995   -2.029066   -0.911606
C     -0.511789   -0.761680   -0.554955
C      0.237561    0.493819   -0.776859
C     -0.281426    1.436293   -1.676732
C      0.419178    2.613493   -1.933346
N      1.607692    2.847430   -1.321944
C      2.151073    1.961047   -0.446314
C      3.374684    2.253543    0.160426
C      3.941670    1.361012    1.071287
C      3.290618    0.157478    1.392584
C      2.051544   -0.131365    0.791504
C      1.477050    0.753949   -0.143635
C      3.877394   -0.791718    2.370770
O      3.129633   -1.608054    2.974034
N      5.282239   -0.816327    2.637898
H     -2.693781    3.796433    2.487454
H     -1.507331    3.703181    1.127602
H     -3.114858    4.477460    0.862779
H     -5.214148    2.893220    1.411498
H     -6.119499    0.679652    0.763299
H     -4.595971   -1.105200   -0.008749
H     -1.066822   -4.956238   -0.854449
H     -1.688066   -4.137220   -2.366835
H      0.505473   -4.134734   -3.184945
H      1.141249   -4.734734   -1.600547
H      1.117788   -1.932918   -2.653641
H      1.944222   -2.579238   -1.152267
H     -1.221213    1.256165   -2.184693
H      0.019304    3.341602   -2.626248
H      3.886825    3.180583   -0.066924
H      4.875877    1.633819    1.542820
H      1.543675   -1.049139    1.056692
H      5.660621   -1.453832    3.373259
H      5.961745   -0.277994    2.057660
