62
Lipophilicity 421 2.809999942779541
C      2.170964   -1.184305    3.549477
C      1.353933    0.083453    3.311242
C      0.300142   -0.117815    2.222698
O      0.936228   -0.324842    0.965615
C      0.228463   -0.530363   -0.222992
N     -1.132249   -0.593878   -0.205859
C     -1.874390   -0.830846   -1.322954
C     -1.212726   -1.030970   -2.545787
C      0.179498   -0.969985   -2.595473
C      0.919077   -0.697328   -1.437186
C      2.392828   -0.598937   -1.515535
O      3.023370   -1.390881   -2.266992
N      3.100684    0.414252   -0.783957
C      4.554567    0.384734   -0.598567
C      4.894228   -0.308199    0.729072
C      6.417982   -0.441056    0.929292
C      7.231743    0.663520    0.225616
C      6.449672    1.977784    0.147953
C      5.135294    1.820400   -0.644231
N     -3.316794   -0.864249   -1.232198
C     -4.114691   -1.569974   -2.248949
C     -5.532519   -1.860615   -1.748163
C     -6.244049   -0.591224   -1.252887
C     -5.304423    0.418886   -0.537347
C     -6.003777    1.113868    0.649066
C     -7.135851    1.979546    0.187710
O     -8.308006    1.518525    0.140939
O     -6.883899    3.283848   -0.226071
C     -3.994362   -0.247178   -0.079448
H      2.697410   -1.488178    2.621597
H      2.928104   -0.996315    4.339730
H      1.510102   -2.011807    3.880903
H      0.847575    0.368015    4.258242
H      2.034838    0.912295    3.019507
H     -0.342892   -0.989937    2.471613
H     -0.338361    0.790182    2.166321
H     -1.760125   -1.212173   -3.460660
H      0.679697   -1.108712   -3.546400
H      2.549753    1.133552   -0.265253
H      5.025502   -0.196729   -1.422291
H      4.434182   -1.320356    0.753893
H      4.460690    0.281143    1.568020
H      6.753500   -1.427107    0.543240
H      6.636775   -0.422598    2.018726
H      8.185168    0.827826    0.773086
H      7.489694    0.336236   -0.805662
H      7.079569    2.756815   -0.331622
H      6.219986    2.319460    1.181081
H      4.403122    2.551387   -0.238159
H      5.314797    2.095330   -1.706749
H     -4.168117   -0.951821   -3.170821
H     -3.632787   -2.540265   -2.497512
H     -6.126219   -2.326809   -2.563670
H     -5.474682   -2.594131   -0.914434
H     -6.717445   -0.081997   -2.121116
H     -7.068559   -0.911769   -0.578644
H     -5.017870    1.204206   -1.274713
H     -5.276243    1.757714    1.187291
H     -6.378078    0.357920    1.373060
H     -7.634364    3.876809   -0.558971
H     -3.344928    0.530515    0.380362
H     -4.200733   -1.024869    0.688773
