52
Lipophilicity 241 2.0
N      5.235225    3.782721    0.638173
C      5.882131    2.534191    0.376724
O      7.141574    2.499808    0.331486
C      5.105510    1.291979    0.142792
C      5.688914    0.222063   -0.557593
C      4.970476   -0.954127   -0.779769
C      3.664742   -1.082192   -0.303347
C      3.064022   -0.025896    0.406930
O      1.758541   -0.098743    0.920570
C      0.814827   -1.141397    0.663946
C      0.302272   -1.055979   -0.803597
C     -1.053363   -1.776956   -0.987807
C     -0.961188   -3.252327   -0.570564
C     -1.323303   -3.243087    0.912335
C     -1.614529   -1.764105    1.216654
C     -0.339006   -1.034435    1.697126
N     -1.996026   -1.146488   -0.059045
C     -3.410472   -1.392971   -0.424388
C     -4.329658   -0.355483    0.232561
C     -3.926360    1.047621   -0.141197
C     -3.096465    1.797819    0.709201
C     -2.683112    3.080731    0.337801
C     -3.090501    3.621310   -0.884886
C     -3.909591    2.878396   -1.739652
C     -4.323747    1.594111   -1.372820
C      3.792713    1.149590    0.630171
H      4.204607    3.901726    0.529430
H      5.806906    4.628433    0.857939
H      6.698695    0.297934   -0.941714
H      5.428822   -1.771009   -1.322370
H      3.143188   -2.010363   -0.484206
H      1.304116   -2.126268    0.824289
H      1.050868   -1.490323   -1.499080
H      0.170560    0.013002   -1.081684
H     -1.372851   -1.676362   -2.049356
H     -1.706071   -3.850729   -1.139457
H      0.050244   -3.680294   -0.745547
H     -2.234246   -3.855803    1.087824
H     -0.500708   -3.651882    1.539077
H     -2.407912   -1.662271    1.989227
H     -0.588179    0.037214    1.859476
H     -0.008127   -1.450846    2.673443
H     -3.741638   -2.413522   -0.131438
H     -3.547827   -1.310318   -1.525713
H     -4.318777   -0.479547    1.336442
H     -5.375448   -0.540341   -0.096531
H     -2.766842    1.387898    1.655630
H     -2.044165    3.654529    0.996540
H     -2.768720    4.614151   -1.171486
H     -4.219840    3.295893   -2.688798
H     -4.948821    1.023788   -2.048772
H      3.328542    1.939157    1.205649
