45
Lipophilicity 1851 2.6500000953674316
C      5.225241    3.608639    2.125893
C      4.999543    2.220071    1.623246
O      5.807756    1.307846    1.945351
N      3.820006    1.919139    0.861844
C      3.595220    0.673171    0.180356
C      4.665610   -0.047258   -0.413007
C      4.430763   -1.263634   -1.076268
C      3.118572   -1.721595   -1.158568
N      2.696608   -2.871254   -1.711402
C      1.357638   -2.903367   -1.532366
C      0.924575   -1.754836   -0.875567
C     -0.473361   -1.450694   -0.517609
C     -0.974773   -0.129676   -0.574248
C     -2.320434    0.113300   -0.244848
N     -2.838338    1.456025   -0.303293
C     -4.249209    1.796742   -0.140023
C     -5.095504    1.478242   -1.361429
C     -4.716161    2.917673   -1.054042
N     -3.083588   -0.959513    0.112226
N     -4.357106   -0.975703    0.476605
C     -4.683937   -2.265095    0.737382
C     -3.577199   -3.076197    0.530306
C     -3.485900   -4.500599    0.699421
N     -3.412032   -5.647344    0.835461
C     -2.593508   -2.204921    0.139952
N     -1.304531   -2.477099   -0.172674
C      2.070094   -1.011997   -0.629946
C      2.276467    0.184582    0.061228
H      4.914780    4.344989    1.355246
H      4.627856    3.769665    3.047178
H      6.300375    3.766443    2.355684
H      3.043449    2.618914    0.874364
H      5.676465    0.335370   -0.375671
H      5.246794   -1.825599   -1.512033
H      3.282396   -3.600815   -2.175216
H      0.724626   -3.713740   -1.870436
H     -0.347678    0.686723   -0.906873
H     -2.162463    2.242784   -0.435208
H     -4.719419    1.715956    0.862884
H     -6.151628    1.225787   -1.129786
H     -4.546478    1.034940   -2.219894
H     -3.951566    3.336133   -1.743199
H     -5.551675    3.525208   -0.647015
H     -5.664263   -2.590465    1.059371
H      1.455915    0.713059    0.526037
