73
Lipophilicity 67 3.299999952316284
C     -6.752443   -4.014950    1.812428
O     -6.493668   -2.732812    1.245474
C     -5.219912   -2.254413    0.901796
C     -5.127462   -0.994274    0.305678
C     -3.887199   -0.462905   -0.068412
N     -3.829683    0.830551   -0.691449
C     -3.099892    1.933116   -0.062708
C     -3.959400    3.206389   -0.091701
N     -4.659194    3.441239   -1.386661
C     -6.118987    3.539533   -1.208558
C     -4.307188    2.484578   -2.459527
C     -4.453080    1.027197   -2.001963
C     -2.716053   -1.204654    0.164179
N     -1.509775   -0.709111   -0.218746
C     -0.343108   -1.377374   -0.021477
C     -0.373954   -2.641918    0.584920
C     -1.595461   -3.194526    0.991902
N     -1.606093   -4.484906    1.622774
C     -1.771212   -4.590997    3.070857
C     -1.302574   -5.676328    0.830229
C     -2.790134   -2.475024    0.779044
C     -4.047935   -2.995635    1.135737
C      0.915158   -0.739784   -0.466875
O      0.852039    0.136620   -1.372571
N      2.190144   -1.077874    0.112368
C      3.373117   -0.275839   -0.053226
C      4.628814   -0.897940   -0.086020
C      5.793284   -0.138981   -0.235548
C      5.725740    1.261764   -0.348910
C      4.466597    1.885394   -0.279625
C      3.304057    1.126540   -0.125197
N      6.928644    2.045499   -0.514741
C      6.899144    3.300515   -1.277506
C      8.274074    3.589410   -1.933114
O      9.416655    3.068649   -1.257753
C      9.168434    2.830171    0.112988
C      8.132668    1.715541    0.258531
H     -6.234512   -4.111681    2.788415
H     -6.414998   -4.812095    1.118521
H     -7.842873   -4.126554    1.981131
H     -6.031311   -0.421011    0.141231
H     -2.836856    1.687492    0.989846
H     -2.152430    2.107420   -0.615140
H     -3.303565    4.076927    0.115211
H     -4.676115    3.147256    0.757602
H     -6.359755    4.380951   -0.524002
H     -6.534764    2.600470   -0.782173
H     -6.615322    3.761546   -2.176297
H     -4.931668    2.653833   -3.363791
H     -3.255977    2.667419   -2.773209
H     -3.969098    0.359769   -2.748024
H     -5.531228    0.762826   -1.950628
H      0.530672   -3.212528    0.731012
H     -2.575423   -5.319009    3.307831
H     -2.046844   -3.608911    3.507451
H     -0.821709   -4.931031    3.531251
H     -2.079743   -5.811293    0.045323
H     -1.293012   -6.585499    1.469279
H     -0.306401   -5.565248    0.352276
H     -4.118696   -3.975514    1.585333
H      2.296930   -1.967011    0.647377
H      4.702640   -1.976625   -0.011610
H      6.744906   -0.650854   -0.275277
H      4.381222    2.963668   -0.318875
H      2.356264    1.639580   -0.040897
H      6.120786    3.254931   -2.072218
H      6.637241    4.135740   -0.590282
H      8.263500    3.135635   -2.951705
H      8.400777    4.688124   -2.071999
H     10.116671    2.513800    0.597163
H      8.826358    3.759342    0.624735
H      7.872391    1.588166    1.333890
H      8.577781    0.770366   -0.125373
