42
Lipophilicity 191 0.20000000298023224
C      3.239003   -1.892946    1.450146
C      3.842139   -0.552167    0.999046
C      5.146081   -0.751162    0.216421
N      2.887106    0.291036    0.250328
C      2.228071   -0.387813   -0.879753
C      1.645607    0.631347   -1.880004
O      2.671431    1.377953   -2.485785
C      0.590438    1.560976   -1.258306
O     -0.460653    0.788133   -0.683019
C     -1.573432    1.324343   -0.017600
C     -1.774162    2.713388    0.105674
C     -2.896164    3.206194    0.774857
C     -3.825124    2.324065    1.326503
C     -3.636446    0.945187    1.211468
C     -2.508819    0.435156    0.537093
O     -2.275817   -0.944093    0.398776
C     -3.152490   -1.980293    0.841916
C     -4.396141   -2.024611    0.000284
C     -4.338637   -2.251975   -1.314334
H      2.277116   -1.719869    1.977735
H      3.934435   -2.401806    2.151175
H      3.063283   -2.566953    0.585307
H      4.116954    0.003003    1.924329
H      5.922752   -1.182324    0.883608
H      5.008965   -1.441672   -0.640882
H      5.514423    0.226205   -0.161527
H      2.144519    0.601896    0.920374
H      2.945135   -1.025711   -1.436736
H      1.412408   -1.047611   -0.507816
H      1.140899    0.050770   -2.682967
H      3.095872    1.935752   -1.782664
H      0.173570    2.213456   -2.056083
H      1.054661    2.204750   -0.480344
H     -1.070615    3.419560   -0.313273
H     -3.045557    4.274375    0.866036
H     -4.693336    2.709458    1.845484
H     -4.371931    0.287559    1.652228
H     -2.625102   -2.953680    0.755819
H     -3.410880   -1.835127    1.912411
H     -5.362090   -1.874988    0.473187
H     -3.386361   -2.408042   -1.812424
H     -5.251111   -2.281715   -1.900781
