46
Lipophilicity 1283 2.4100000858306885
C      6.160140    2.094013   -0.834629
C      6.335089    0.791959   -0.047396
C      7.708851    0.753301    0.619004
O      5.329945    0.686663    0.961494
C      3.998479    0.336452    0.706668
C      3.446891   -0.027053   -0.507894
C      2.120931   -0.270029   -0.194616
N      1.900748   -0.065981    1.120331
N      3.051342    0.302224    1.659449
N      1.103963   -0.682844   -1.118944
C      1.227935   -0.911039   -2.453510
N      0.062863   -1.292646   -3.047412
C     -0.805337   -1.294271   -2.019725
C     -2.156158   -1.602547   -2.015001
N     -2.818148   -1.524230   -0.823148
C     -2.176029   -1.153389    0.335053
N     -2.896278   -1.074519    1.571885
C     -4.332505   -1.356799    1.661669
C     -4.768511   -1.473697    3.124457
C     -5.116989   -0.272754    0.976605
N     -4.861288    1.036611    1.249501
C     -5.567549    2.027596    0.646179
C     -6.573959    1.707517   -0.263978
F     -7.290123    2.682241   -0.876260
C     -6.829471    0.362632   -0.528261
N     -6.101297   -0.599557    0.095533
N     -0.841034   -0.852637    0.312161
C     -0.188641   -0.932281   -0.872913
H      5.174075    2.108203   -1.343021
H      6.219085    2.969063   -0.152588
H      6.950828    2.183583   -1.609775
H      6.267377   -0.074243   -0.742091
H      7.821134    1.601206    1.328361
H      7.825941   -0.197882    1.180369
H      8.511525    0.810187   -0.147062
H      3.932323   -0.106478   -1.470849
H      3.182908    0.527285    2.670224
H      2.155842   -0.802554   -2.999363
H     -2.673664   -1.894876   -2.918812
H     -2.366596   -0.802464    2.431675
H     -4.537853   -2.333976    1.170058
H     -4.578426   -0.523442    3.668710
H     -5.852193   -1.712462    3.182937
H     -4.202826   -2.289896    3.622135
H     -5.347349    3.061794    0.874787
H     -7.605988    0.082018   -1.227267
