92
Lipophilicity 1728 1.409999966621399
O      3.554303   -3.416213    3.707389
C      3.884758   -2.253239    3.011706
C      4.471604   -1.164464    3.684571
C      4.701750    0.052311    3.006576
C      4.416989    0.159465    1.632401
C      4.354646    1.502286    0.943818
C      4.071091    1.365493   -0.580516
N      5.384176    1.031105   -1.217064
C      5.974556    2.194707   -1.919330
C      7.476194    1.979219   -2.201838
C      8.363704    1.975500   -0.967888
C      8.399657    3.156920   -1.919536
C      5.413506   -0.194874   -2.047636
C      4.792895   -1.410981   -1.336385
C      3.545166   -1.074968   -0.464656
C      2.561842   -2.307107   -0.391869
O      2.878748   -2.957582    0.843499
C      3.610384   -2.109898    1.648481
C      3.960367   -0.982683    0.969361
C      1.124216   -1.880717   -0.353038
N      0.074653   -2.723745   -0.415969
C     -1.027459   -1.957269   -0.304325
C     -2.435219   -2.473155   -0.369900
O     -2.724520   -2.846033   -1.725043
C     -3.545541   -1.904874   -2.311282
C     -3.864092   -1.772542   -3.665472
O     -3.475375   -2.727404   -4.601288
C     -4.565159   -0.619273   -4.069764
C     -4.865710    0.396046   -3.135405
C     -4.534281    0.225296   -1.776923
C     -4.534192    1.384862   -0.809964
C     -4.175152    0.956735    0.643962
N     -5.423653    0.397591    1.248887
C     -6.084408    1.307185    2.219399
C     -7.079446    2.226646    1.486802
C     -8.518854    2.223006    1.996653
C     -8.172110    1.490069    0.709232
C     -5.351480   -0.983919    1.765635
C     -4.690601   -1.964130    0.776102
C     -3.494392   -1.356128   -0.021638
C     -3.962463   -0.988894   -1.393423
C     -2.964829   -0.063093    0.675254
O     -2.607412   -0.368981    2.004901
C     -1.684804    0.480394   -0.034617
C     -0.685671   -0.628184   -0.160990
C      0.693944   -0.575961   -0.217532
C      1.610227    0.606948   -0.121997
C      2.941190    0.305899   -0.883223
O      2.658347    0.351591   -2.266085
H      3.119606   -4.205415    3.242483
H      4.689213   -1.237143    4.741969
H      5.042323    0.919881    3.562667
H      3.557788    2.114857    1.416404
H      5.312967    2.045716    1.112042
H      3.694679    2.348472   -0.945338
H      5.843346    3.111817   -1.300300
H      5.448643    2.370944   -2.884418
H      7.805738    1.312889   -3.027192
H      9.233748    1.290276   -1.047963
H      7.855339    2.187720   -0.004095
H      7.934839    4.073059   -1.505485
H      9.316542    3.189675   -2.542148
H      6.465323   -0.466215   -2.280689
H      4.913218   -0.015741   -3.025377
H      5.579223   -1.905332   -0.725834
H      4.526851   -2.133778   -2.133583
H      2.688797   -3.023703   -1.230710
H      0.113593   -3.762454   -0.528722
H     -2.513239   -3.370561    0.283592
H     -2.953304   -3.553163   -4.330923
H     -4.824490   -0.481487   -5.111822
H     -5.299982    1.327328   -3.477910
H     -5.529557    1.877674   -0.837082
H     -3.791698    2.135954   -1.158655
H     -3.853377    1.878049    1.175339
H     -5.348269    1.934198    2.770113
H     -6.622495    0.732035    3.006270
H     -6.732303    3.172669    1.020544
H     -9.074196    3.173499    1.832585
H     -8.765334    1.531879    2.828496
H     -8.517666    2.008496   -0.209612
H     -8.183621    0.379144    0.805514
H     -6.384163   -1.354581    1.964518
H     -4.820499   -0.999148    2.743003
H     -4.348449   -2.832214    1.382404
H     -5.469477   -2.354841    0.077090
H     -2.453020    0.490068    2.484002
H     -1.248815    1.323425    0.547363
H     -1.895209    0.851150   -1.056923
H      1.774712    0.802035    0.956542
H      1.121520    1.505582   -0.558343
H      2.139069   -0.455678   -2.509362
