47
Lipophilicity 493 3.430000066757202
C      6.882719    1.903581    0.612389
C      5.783252    0.883977    0.578628
C      4.663128    1.077581   -0.240178
C      3.619800    0.147104   -0.243463
C      3.665741   -0.986351    0.590731
C      4.793537   -1.168597    1.413294
C      5.836290   -0.238413    1.414415
C      2.574923   -2.002978    0.616471
O      2.861084   -3.180484    0.969031
C      1.132004   -1.714484    0.248017
C      0.911062   -1.684430   -1.289037
C     -0.058851   -0.577964   -1.729251
N     -1.185732   -0.483928   -0.791535
C     -0.918712   -0.292149    0.645074
C      0.571030   -0.473103    0.975267
C     -2.515504   -0.825223   -1.228891
O     -2.671129   -1.728251   -2.095783
C     -3.708914   -0.154651   -0.667609
C     -4.910704   -0.866003   -0.514189
C     -6.044965   -0.235794    0.006504
C     -5.994948    1.115819    0.379586
C     -7.215351    1.807219    0.911487
C     -4.806192    1.836611    0.196245
C     -3.671471    1.206860   -0.323951
H      6.671392    2.647222    1.409255
H      7.859617    1.417175    0.820130
H      6.961932    2.429539   -0.363255
H      4.598125    1.947690   -0.881651
H      2.788469    0.324531   -0.906422
H      4.862798   -2.025922    2.071821
H      6.684738   -0.393904    2.069415
H      0.529873   -2.571011    0.632451
H      1.867867   -1.561618   -1.841081
H      0.494136   -2.665155   -1.609561
H     -0.406820   -0.772781   -2.766988
H      0.474230    0.396798   -1.746611
H     -1.499839   -1.039270    1.229755
H     -1.239646    0.721092    0.962290
H      0.689262   -0.593444    2.074320
H      1.113396    0.447383    0.679658
H     -4.968644   -1.912572   -0.787168
H     -6.959873   -0.803434    0.120207
H     -7.666061    2.430450    0.111255
H     -6.941773    2.459060    1.768482
H     -7.971330    1.072708    1.263742
H     -4.760199    2.888705    0.448757
H     -2.773746    1.790810   -0.482563
