51
Lipophilicity 1766 3.5999999046325684
C      0.886201   -0.088913    3.232600
C      1.642665   -0.331332    1.921565
N      1.677071    0.892311    1.107336
C      2.446867    1.041143   -0.102619
C      2.302790    2.212601   -0.865565
C      3.025032    2.383067   -2.050110
C      3.903527    1.388195   -2.483555
C      4.063594    0.222859   -1.730877
C      3.343148    0.047154   -0.545315
C      1.008307   -1.487017    1.159867
C      1.622121   -2.744347    1.203011
C      1.066992   -3.828631    0.523764
C     -0.138194   -3.656173   -0.164126
N     -0.762285   -2.435908   -0.200917
C     -1.942929   -2.278976   -0.887485
O     -2.470071   -3.246030   -1.504727
C     -2.581717   -1.038995   -0.920183
C     -2.008594    0.036518   -0.241665
N     -0.837910   -0.149993    0.416445
C     -0.207882   -1.354057    0.451691
N     -2.616045    1.341295   -0.262870
C     -1.756811    2.525189   -0.165408
C     -2.476500    3.742543   -0.752964
O     -3.758156    3.897158   -0.174062
C     -4.575476    2.796521   -0.524073
C     -4.032761    1.500493    0.085321
C      1.715187   -5.180146    0.596040
H     -0.167190    0.203535    3.036548
H      1.379066    0.723800    3.807432
H      0.893574   -1.010210    3.853701
H      2.688683   -0.584276    2.203967
H      1.093397    1.705677    1.411935
H      1.626806    2.994635   -0.543440
H      2.902515    3.287053   -2.632462
H      4.461480    1.520978   -3.401370
H      4.748121   -0.545855   -2.065692
H      3.496895   -0.862479    0.016452
H      2.539611   -2.880116    1.763640
H     -0.570606   -4.514727   -0.666250
H     -3.494771   -0.916013   -1.488767
H     -1.510188    2.714927    0.901893
H     -0.812188    2.362132   -0.728166
H     -2.543599    3.657270   -1.861873
H     -1.876869    4.650589   -0.532225
H     -5.597275    2.975468   -0.127721
H     -4.667007    2.698125   -1.630208
H     -4.131737    1.543058    1.191718
H     -4.640557    0.649422   -0.284960
H      1.325926   -5.729270    1.478639
H      1.499766   -5.768763   -0.321196
H      2.817974   -5.081487    0.687725
