42
Lipophilicity 1600 3.2699999809265137
C      9.071544    0.751602   -0.694840
O      8.385470   -0.466266   -1.017633
C      7.058864   -0.315132   -0.663110
C      6.019474   -1.231898   -0.783066
C      4.742671   -0.838264   -0.342536
C      4.533603    0.462203    0.192927
O      3.277021    0.878461    0.656312
C      2.041605    0.459619    0.142891
C      1.874203    0.126524   -1.209375
C      0.611349   -0.266718   -1.647796
N     -0.427558   -0.305027   -0.775201
C     -0.261722    0.046527    0.529382
O     -1.327849   -0.006835    1.435614
C     -2.685817   -0.056483    1.087755
C     -3.188458    0.574603   -0.063171
C     -4.551707    0.509724   -0.365732
C     -5.441239   -0.176099    0.481247
C     -4.934315   -0.786704    1.642775
C     -3.570835   -0.720321    1.942842
N     -6.848104   -0.243742    0.169538
C     -7.867453   -0.427635    1.029513
C     -9.040577   -0.426051    0.310983
N     -8.768894   -0.245645   -0.996529
C     -7.425033   -0.136879   -1.047053
N      0.966923    0.420302    0.973945
C      5.622181    1.349139    0.309630
C      6.868982    0.921010   -0.137422
O      8.066919    1.609104   -0.134927
H      9.495348    1.207649   -1.614047
H      9.868283    0.555806    0.053073
H      6.190361   -2.218380   -1.193408
H      3.927602   -1.547364   -0.399384
H      2.695235    0.185352   -1.911651
H      0.454787   -0.536260   -2.683668
H     -2.537468    1.145318   -0.711306
H     -4.911811    1.019919   -1.248862
H     -5.587090   -1.330299    2.312235
H     -3.197506   -1.198444    2.839689
H     -7.776713   -0.535817    2.102162
H    -10.036423   -0.546277    0.715766
H     -6.880568    0.000707   -1.971759
H      5.494712    2.338970    0.728243
