40
Lipophilicity 1010 3.9000000953674316
C     -4.107178   -1.960308   -2.690534
O     -4.264874   -1.129500   -1.544818
C     -3.204377   -0.583792   -0.803448
C     -1.859502   -0.819462   -1.140791
C     -0.823798   -0.258819   -0.380193
C      0.511974   -0.500627   -0.725322
C      1.542293    0.063058    0.040089
N      1.225102    0.834710    1.114121
C     -0.056518    1.095791    1.488172
C     -0.278007    1.962518    2.694439
C     -1.126101    0.549904    0.738963
C     -2.475089    0.781819    1.071037
C     -3.512816    0.218297    0.303973
O     -4.866663    0.432013    0.610702
C     -5.335771    1.219930    1.700206
C      2.969244   -0.166641   -0.300721
C      3.378068   -0.208021   -1.647653
C      4.720667   -0.406555   -1.978046
C      5.677776   -0.562962   -0.969954
O      7.019497   -0.760171   -1.288694
C      5.286124   -0.520119    0.370216
C      3.939865   -0.324475    0.713112
O      3.567362   -0.303857    2.057499
H     -3.555185   -2.884830   -2.418923
H     -3.565451   -1.410847   -3.489182
H     -5.108994   -2.244598   -3.072454
H     -1.613251   -1.437585   -1.994613
H      0.745839   -1.137548   -1.570448
H      0.693176    2.279505    3.130854
H     -0.839006    1.398312    3.468825
H     -0.844177    2.873576    2.407843
H     -2.723152    1.397655    1.922737
H     -4.987240    2.268685    1.591237
H     -6.444942    1.213212    1.700801
H     -4.977748    0.794453    2.661468
H      2.663331   -0.064372   -2.447999
H      5.016839   -0.431999   -3.019068
H      7.335564   -0.795882   -2.250847
H      6.030054   -0.643655    1.147352
H      4.247065   -0.419815    2.800065
