47
Lipophilicity 87 1.2999999523162842
N     -6.420304   -2.449589   -0.513052
C     -5.207437   -3.161181   -0.774414
O     -5.276896   -4.357742   -1.165310
C     -3.879211   -2.529645   -0.580442
C     -2.744212   -3.326244   -0.375941
N     -1.524355   -2.754975   -0.209818
C     -1.336883   -1.407793   -0.232918
C      0.045130   -0.896428   -0.094482
C      0.852691   -1.347621    0.958567
C      2.158300   -0.871017    1.103120
C      2.700140    0.031356    0.168936
C      1.875803    0.501167   -0.870184
C      0.570904    0.023963   -1.014726
C      4.094936    0.613806    0.373548
N      4.070539    1.816581    1.209828
C      5.163292   -0.382681    0.851807
C      5.986613   -0.110314   -0.398105
C      4.911737    0.837031   -0.909455
C     -2.453257   -0.555489   -0.415563
C     -3.717303   -1.135799   -0.606400
C     -2.343623    0.922668   -0.360180
C     -1.752670    1.553868    0.748814
C     -1.645926    2.947035    0.793072
C     -2.136010    3.720926   -0.262043
C     -2.736753    3.102977   -1.362027
C     -2.844337    1.709746   -1.411448
H     -7.340597   -2.898922   -0.716778
H     -6.422568   -1.521621   -0.036698
H     -2.824802   -4.405167   -0.344383
H      0.461797   -2.048679    1.685987
H      2.739818   -1.199647    1.954757
H      2.237064    1.244910   -1.568588
H     -0.030054    0.377820   -1.843059
H      3.445705    2.523743    0.758097
H      3.642264    1.572050    2.132489
H      5.687840   -0.064550    1.779819
H      4.827084   -1.442025    0.880268
H      6.941599    0.412805   -0.172238
H      6.105041   -1.011446   -1.039093
H      5.287211    1.877815   -1.024979
H      4.439422    0.437046   -1.833043
H     -4.570147   -0.490908   -0.772605
H     -1.377738    0.968081    1.578996
H     -1.185435    3.426863    1.646958
H     -2.052774    4.799432   -0.226059
H     -3.117486    3.703673   -2.177882
H     -3.304151    1.244121   -2.274492
