39
Lipophilicity 94 2.819999933242798
C      4.032315   -0.754889    1.220014
N      3.304070   -0.064680    0.143622
C      2.905059    1.292999    0.577197
C      1.727890    1.834898   -0.238416
N      0.557604    0.950254   -0.106400
C      0.808015   -0.482889    0.191828
C      2.189477   -0.894144   -0.378679
C     -0.339229   -1.398365   -0.253298
C     -0.191059   -2.371259   -1.269778
C     -1.243635   -3.228251   -1.597974
C     -2.463349   -3.128098   -0.933581
C     -2.642307   -2.158660    0.051370
C     -1.589922   -1.295205    0.400454
C     -1.856092   -0.145702    1.329871
C     -1.889269    1.108956    0.505551
C     -3.103247    1.802777    0.368497
C     -3.183705    2.930432   -0.444326
C     -2.049993    3.358888   -1.126465
N     -0.881270    2.681757   -0.992988
C     -0.752622    1.570588   -0.210712
H      4.863621   -0.118222    1.593573
H      4.485698   -1.692088    0.831916
H      3.353040   -1.001100    2.066022
H      2.611941    1.302030    1.652754
H      3.770958    1.978850    0.455765
H      2.010955    1.919695   -1.309821
H      1.491459    2.852161    0.145492
H      0.905685   -0.596150    1.292551
H      2.172455   -0.762835   -1.482101
H      2.370005   -1.976327   -0.184419
H      0.731000   -2.488993   -1.818754
H     -1.112480   -3.972406   -2.373126
H     -3.278848   -3.789235   -1.197089
H     -3.611157   -2.066390    0.526536
H     -2.814532   -0.295348    1.874597
H     -1.079218   -0.066091    2.116892
H     -3.993808    1.465864    0.884677
H     -4.119363    3.464394   -0.548903
H     -2.096140    4.232787   -1.762351
