49
Lipophilicity 928 3.890000104904175
C     -3.781695    0.193600   -2.161462
C     -3.307073    0.854813   -0.870435
C     -1.982295    0.271586   -0.411447
C     -0.804195    0.939562   -0.558249
C     -0.730895    2.243639   -1.250938
C     -0.811207    2.311765   -2.650614
C     -0.727579    3.547683   -3.298962
C     -0.554162    4.718526   -2.555052
C     -0.458328    4.654380   -1.161797
C     -0.541436    3.420087   -0.509980
C      0.465601    0.424197    0.014073
C      1.595297    0.275570   -0.803254
C      2.794364   -0.205476   -0.271053
C      2.888465   -0.547794    1.087617
C      4.184861   -1.049861    1.605829
C      4.308390   -1.767123    2.731828
C      5.610195   -2.260902    3.210603
O      6.673951   -2.004080    2.583827
O      5.662530   -3.020859    4.374377
C      1.762044   -0.365155    1.913798
C      0.564171    0.117973    1.380475
C     -2.014331   -1.100956    0.156066
C     -2.764545   -1.375460    1.311634
C     -2.789033   -2.667959    1.844500
C     -2.070731   -3.694938    1.226146
C     -1.327960   -3.431934    0.072177
C     -1.301013   -2.141507   -0.464420
H     -3.942870   -0.893915   -2.002141
H     -4.742432    0.649447   -2.480751
H     -3.036785    0.334843   -2.970687
H     -3.255848    1.953524   -1.018893
H     -4.076954    0.690649   -0.087391
H     -0.922938    1.409379   -3.237592
H     -0.791454    3.597311   -4.378230
H     -0.488468    5.674438   -3.058351
H     -0.318374    5.560827   -0.587210
H     -0.464718    3.380247    0.569769
H      1.544662    0.519308   -1.857300
H      3.649559   -0.320683   -0.926032
H      5.068455   -0.854935    1.008667
H      3.438389   -2.030853    3.316685
H      6.544995   -3.372573    4.726348
H      1.803653   -0.566010    2.975065
H     -0.284861    0.264616    2.036670
H     -3.313850   -0.587350    1.810984
H     -3.362546   -2.872761    2.739228
H     -2.090232   -4.694459    1.640825
H     -0.774084   -4.228440   -0.407557
H     -0.726691   -1.951985   -1.363020
