47
Lipophilicity 726 3.799999952316284
O      8.115595    0.576824   -1.993174
C      6.941557    0.352373   -1.278426
C      6.888798   -0.651145   -0.277070
C      5.701295   -0.879905    0.443505
C      4.599490   -0.085200    0.134625
N      3.371557   -0.124577    0.663785
C      2.698984    0.844391   -0.007067
C      1.249065    1.145599    0.217473
N      0.457090    0.783204   -0.978188
C      0.320401   -0.677324   -1.179387
C     -0.660118   -1.331545   -0.190905
C     -2.028038   -0.628953   -0.213627
C     -2.960210   -1.249579    0.848954
C     -4.372576   -0.733342    0.732889
C     -4.832596    0.281934    1.587933
C     -6.133597    0.777562    1.456872
C     -6.982636    0.267228    0.471133
F     -8.242492    0.751796    0.344320
C     -6.530726   -0.739823   -0.385589
C     -5.230181   -1.237865   -0.258249
C     -1.844111    0.885353    0.004076
C     -0.854075    1.463360   -1.017319
N      3.449812    1.488271   -0.939345
C      4.645342    0.882573   -0.824761
C      5.801842    1.132347   -1.558765
H      8.956503    0.041216   -1.809173
H      7.763762   -1.251503   -0.063332
H      5.646991   -1.645624    1.207155
H      3.013117   -0.759118    1.410310
H      1.170919    2.236908    0.418140
H      0.886129    0.620534    1.126189
H      1.309136   -1.177813   -1.099710
H     -0.036546   -0.862940   -2.215271
H     -0.234017   -1.318341    0.834917
H     -0.790180   -2.396746   -0.478866
H     -2.481377   -0.791417   -1.219257
H     -2.558659   -1.053377    1.867133
H     -2.979254   -2.353561    0.722676
H     -4.182649    0.693819    2.350254
H     -6.481314    1.560330    2.118023
H     -7.186462   -1.133867   -1.150297
H     -4.889886   -2.012769   -0.932438
H     -1.484681    1.088617    1.037082
H     -2.817127    1.406615   -0.125253
H     -1.283268    1.362409   -2.038263
H     -0.732725    2.554062   -0.839515
H      5.822118    1.899009   -2.321706
