44
Lipophilicity 1268 3.7200000286102295
C     -2.455306   -1.384650   -0.650327
C     -2.297423    0.143911   -0.360610
C     -1.743652    0.861449   -1.610093
C     -0.275197    0.453112   -1.895853
C      0.660042    0.601778   -0.654913
C      0.052000   -0.084404    0.604969
C      0.966214    0.190927    1.805038
C      2.315701   -0.502504    1.600605
C      2.884772   -0.323913    0.209221
C      4.222919   -0.694718   -0.001275
C      4.802999   -0.588057   -1.268251
O      6.131897   -0.951678   -1.474976
C      4.047027   -0.109120   -2.335827
C      2.712458    0.254106   -2.148879
C      2.093330    0.119617   -0.886917
C     -1.369991    0.467165    0.818534
C     -2.159214    0.050813    2.052886
C     -3.622160    0.348820    1.676523
C     -3.628321    0.709168    0.173200
O     -4.743609    0.165849   -0.485745
H     -2.856103   -1.932545    0.227162
H     -3.160412   -1.541589   -1.494118
H     -1.507776   -1.873148   -0.943789
H     -1.781960    1.963934   -1.464296
H     -2.372957    0.625912   -2.495768
H      0.074981    1.119994   -2.710350
H     -0.230919   -0.586737   -2.281955
H      0.734865    1.694177   -0.450625
H      0.013957   -1.185047    0.463315
H      0.509885   -0.201704    2.738923
H      1.120114    1.285552    1.932540
H      2.192429   -1.591546    1.788276
H      3.033025   -0.108836    2.353484
H      4.817340   -1.066365    0.824965
H      6.709177   -1.302176   -0.719453
H      4.497917   -0.009785   -3.315243
H      2.181219    0.645679   -3.002246
H     -1.267126    1.578613    0.896519
H     -1.849676    0.638572    2.944505
H     -2.019050   -1.032061    2.262506
H     -4.250807   -0.547240    1.873893
H     -4.015641    1.199339    2.274716
H     -3.633890    1.820364    0.064776
H     -5.533076    0.678972   -0.171456
