54
Lipophilicity 754 3.0999999046325684
C     -0.470891    2.338297    1.643069
C     -1.636897    2.150569    0.672925
N     -1.981006    0.732116    0.561077
C     -2.467762    0.153475   -0.661065
O     -2.672901    0.885236   -1.667637
C     -2.749594   -1.328243   -0.763432
C     -4.001818   -1.689638    0.056985
C     -4.316392   -3.187303   -0.053996
C     -3.116520   -4.038499    0.380512
C     -1.864903   -3.685600   -0.433466
C     -1.537206   -2.184727   -0.314325
C     -0.306711   -1.843658   -1.128741
O     -0.283746   -2.124091   -2.358512
N      0.787626   -1.107359   -0.552750
C      1.204911   -1.383614    0.840549
C      2.705650   -1.131496    1.057310
C      3.068802    0.195323    0.487809
N      4.087467    0.986814    0.892691
C      4.058421    2.047365    0.061328
C      4.906847    3.153127    0.071137
C      4.697384    4.151595   -0.898707
C      3.658008    4.023847   -1.848704
F      3.470083    4.994324   -2.776511
C      2.816718    2.895687   -1.837520
C      3.047483    1.926276   -0.863934
C      2.412118    0.734902   -0.595164
C      1.268364    0.076317   -1.295621
C     -2.809611    2.901976    1.139261
N     -3.734220    3.493547    1.506385
H     -0.200187    3.413411    1.715356
H      0.416557    1.782034    1.276828
H     -0.735616    1.962935    2.655573
H     -1.327396    2.551767   -0.316390
H     -1.976619    0.149453    1.428622
H     -2.966002   -1.564350   -1.831211
H     -3.851602   -1.426583    1.127332
H     -4.873895   -1.110759   -0.318263
H     -5.188386   -3.427135    0.591713
H     -4.589872   -3.435400   -1.103376
H     -2.916726   -3.877401    1.462887
H     -3.357564   -5.113305    0.234101
H     -1.008137   -4.284592   -0.054005
H     -2.032715   -3.961450   -1.498238
H     -1.343037   -1.980527    0.759018
H      0.994203   -2.443998    1.101027
H      0.621483   -0.735262    1.529629
H      3.295746   -1.918860    0.541888
H      2.938698   -1.156995    2.143161
H      4.753349    0.812356    1.678100
H      5.700923    3.243055    0.801234
H      5.338000    5.023628   -0.916148
H      2.016848    2.787201   -2.559167
H      0.439352    0.807006   -1.408207
H      1.612889   -0.232794   -2.305523
