39
Lipophilicity 234 2.2300000190734863
C     -2.114611    2.237939   -1.314206
O     -2.056250    1.084057   -0.482216
C     -3.164732    0.298327   -0.122707
C     -4.466535    0.619683   -0.558510
C     -5.556847   -0.161970   -0.172358
F     -6.804186    0.158195   -0.596827
C     -5.364958   -1.272558    0.647786
C     -4.082626   -1.607253    1.084942
C     -2.970442   -0.829929    0.708625
C     -1.610095   -1.211407    1.166584
C     -1.384508   -1.730212    2.452563
N     -0.121204   -2.053910    2.833713
C      0.933883   -1.894170    1.993875
C      0.717626   -1.390211    0.706079
C      1.859180   -1.149302   -0.234856
N      2.315279    0.238852   -0.110259
C      3.348036    0.537249   -1.117086
C      4.744539    0.033818   -0.743753
C      5.231930    1.472888   -0.644248
C      3.843406    1.977027   -1.015909
N     -0.545348   -1.052994    0.332997
H     -2.758740    3.012957   -0.847847
H     -2.505851    1.966087   -2.317266
H     -1.091726    2.650550   -1.432254
H     -4.646511    1.476224   -1.193440
H     -6.210754   -1.881136    0.941158
H     -3.959244   -2.489513    1.700066
H     -2.196290   -1.854023    3.156910
H      1.930091   -2.152039    2.329499
H      1.506057   -1.344440   -1.271828
H      2.691037   -1.856172   -0.016579
H      2.703865    0.379652    0.853295
H      3.040391    0.273290   -2.154647
H      5.228379   -0.519351   -1.577986
H      4.795943   -0.498003    0.231588
H      5.996390    1.719455   -1.413233
H      5.523341    1.753193    0.391652
H      3.369703    2.560368   -0.195471
H      3.832382    2.498781   -1.997846
