23
Lipophilicity 886 0.9100000262260437
F      2.923499    1.276829   -1.715245
C      3.064912    1.733555   -0.418315
F      2.247132    2.831706   -0.228783
F      4.380341    2.106720   -0.210123
C      2.677278    0.650580    0.538129
N      3.495775    0.112241    1.473887
N      2.800593   -0.817589    2.130153
C      1.572675   -0.824237    1.578151
C      0.489396   -1.619960    1.917439
C     -0.694182   -1.433512    1.183599
C     -0.745548   -0.463623    0.145601
N      0.372982    0.277459   -0.120480
N      1.472801    0.069558    0.597669
N     -1.940673   -0.244209   -0.627961
C     -2.085863    0.646214   -1.625632
C     -3.370677    0.547091   -2.106695
N     -4.037563   -0.400562   -1.418786
C     -3.137708   -0.862726   -0.525705
H      0.551915   -2.352267    2.711953
H     -1.552477   -2.041393    1.428782
H     -1.317130    1.320551   -1.981211
H     -3.797433    1.130569   -2.911345
H     -3.370046   -1.642995    0.184919
