80
Lipophilicity 888 2.700000047683716
C     -7.696415   -3.314784   -3.725481
O     -7.294945   -2.698063   -2.505255
C     -5.961553   -2.464913   -2.131575
C     -4.880405   -2.867388   -2.934889
C     -3.566485   -2.619980   -2.532226
N     -2.539111   -3.065308   -3.299936
C     -1.251961   -2.859712   -2.932021
N     -0.971594   -2.172355   -1.797479
C     -1.949909   -1.678257   -0.989949
N     -1.582881   -0.888162    0.160603
C     -0.288052   -0.932191    0.784800
C      0.879118   -0.733941    0.024915
C      2.140413   -0.716592    0.634412
N      3.316172   -0.583093   -0.180223
C      4.502883    0.103298    0.245789
O      4.431907    0.977648    1.152118
C      5.804018   -0.176593   -0.400340
C      6.063399   -1.433362   -0.962894
C      7.298294   -1.678693   -1.558255
N      8.245140   -0.706281   -1.590260
C      8.044303    0.531335   -1.055472
C      6.802629    0.810827   -0.446591
N      9.095252    1.526681   -1.150228
C      8.989950    2.812439   -0.443072
C     10.368797    3.461191   -0.269406
O     11.073273    3.490561   -1.493162
C     11.362622    2.169208   -1.899374
C     10.075387    1.415423   -2.242620
C      2.233939   -0.887198    2.023452
C      1.081239   -1.063175    2.792055
C     -0.183818   -1.093075    2.184179
C     -1.411997   -1.276652    3.034468
C     -3.305459   -1.930014   -1.327278
C     -4.392371   -1.560782   -0.508865
C     -5.718079   -1.821845   -0.910223
O     -6.828820   -1.473995   -0.119980
C     -6.784733   -0.832331    1.154598
C     -6.538595    0.673892    1.002486
N     -6.369363    1.303252    2.332219
C     -7.667165    1.611181    2.958154
C     -8.006376    3.070172    2.670005
C     -6.752420    3.668712    2.065670
C     -5.687489    2.600207    2.231550
H     -7.342981   -2.713415   -4.591773
H     -8.803660   -3.364559   -3.759438
H     -7.293310   -4.349274   -3.783172
H     -5.049257   -3.382010   -3.870696
H     -0.446048   -3.230720   -3.550702
H     -2.288286   -0.270477    0.614836
H      0.810476   -0.552772   -1.040093
H      3.276336   -0.927659   -1.166463
H      5.324975   -2.222744   -0.936643
H      7.505828   -2.644364   -1.995751
H      6.589868    1.789881   -0.041818
H      8.563643    2.666732    0.571848
H      8.330945    3.494113   -1.022729
H     10.953273    2.934387    0.520404
H     10.228926    4.506425    0.080779
H     11.999161    2.212963   -2.807988
H     11.943102    1.620119   -1.122079
H      9.637717    1.843933   -3.169041
H     10.338199    0.354062   -2.437571
H      3.199014   -0.903416    2.511755
H      1.178697   -1.188511    3.863905
H     -1.151551   -1.646936    4.048079
H     -1.940603   -0.307153    3.135336
H     -2.094479   -2.018205    2.569690
H     -4.221869   -1.104670    0.449641
H     -6.015557   -1.301731    1.803720
H     -7.765835   -0.994668    1.646434
H     -5.621291    0.805661    0.389791
H     -7.378359    1.138090    0.437693
H     -8.488406    0.943926    2.613793
H     -7.570684    1.468177    4.055924
H     -8.286426    3.599835    3.606269
H     -8.850686    3.138191    1.951865
H     -6.460334    4.609102    2.580808
H     -6.912227    3.875083    0.985173
H     -5.134694    2.780012    3.180473
H     -4.942359    2.645300    1.406493
