41
Lipophilicity 1313 0.8999999761581421
O     -2.017253   -1.117503    1.802748
C     -1.995751   -0.067357    1.104182
N     -2.712900    1.094570    1.543213
C     -3.436696    1.106269    2.813151
C     -4.081237    2.406540    3.030215
N     -4.589554    3.431944    3.201453
C     -1.265304   -0.043279   -0.222053
C     -2.209985   -0.447043   -1.371733
C     -2.483930   -1.953400   -1.392794
C     -1.179990   -2.740707   -1.523763
C     -0.206576   -2.407419   -0.384398
C      0.043994   -0.888049   -0.201799
C      1.049301   -0.360438   -1.208441
O      0.901004   -0.621492   -2.433357
N      2.180105    0.429768   -0.790127
C      2.038466    1.493337    0.211899
C      3.231762    1.451571    1.162269
C      4.527622    1.412765    0.399747
C      4.614070    0.885673   -0.831970
C      3.408082    0.393827   -1.597550
H     -2.714917    1.943881    0.932333
H     -2.729734    0.912833    3.647323
H     -4.216953    0.316197    2.805412
H     -0.980166    1.017554   -0.401046
H     -3.174272    0.099638   -1.280459
H     -1.759689   -0.146010   -2.342718
H     -3.140312   -2.191466   -2.257374
H     -3.019809   -2.258616   -0.468039
H     -1.410426   -3.827547   -1.494476
H     -0.712421   -2.532382   -2.508716
H      0.758677   -2.929006   -0.566396
H     -0.614790   -2.829078    0.558899
H      0.512556   -0.784663    0.801673
H      2.004822    2.477705   -0.304142
H      1.104906    1.394706    0.801405
H      3.215239    2.345616    1.821307
H      3.164339    0.543289    1.798859
H      5.431930    1.758243    0.891460
H      5.582465    0.852629   -1.321798
H      3.272072    1.025949   -2.500615
H      3.611254   -0.649049   -1.923786
