52
Lipophilicity 1708 1.2000000476837158
C     -7.629555    0.445139    1.056501
C     -6.160330    0.266171    0.808837
N     -5.345927    0.133348    1.890337
C     -4.001632   -0.025496    1.780687
C     -3.196643   -0.204600    3.035164
C     -3.422236   -0.023275    0.496216
N     -4.237525    0.083914   -0.585094
C     -5.587056    0.224502   -0.486329
C     -6.370048    0.326928   -1.747317
O     -7.629113    0.328642   -1.733395
N     -5.700413    0.409049   -3.008420
C     -1.967966   -0.158857    0.269480
C     -1.059818    0.726846    0.866432
C      0.309974    0.604332    0.624010
C      0.800465   -0.396858   -0.236302
C      2.292648   -0.524516   -0.499669
C      3.061382   -0.939268    0.783148
C      4.534038   -0.479632    0.788409
C      5.116898   -0.420820   -0.637945
C      6.641738   -0.171376   -0.646129
C      7.046898    1.106009    0.031500
O      7.238763    1.127761    1.276802
O      7.204414    2.270373   -0.714218
C      4.345500    0.593274   -1.525097
C      2.868968    0.766786   -1.112720
C     -0.118018   -1.274214   -0.847721
F      0.305127   -2.253944   -1.686499
C     -1.488763   -1.146709   -0.601888
H     -7.833191    0.516959    2.146361
H     -7.986433    1.383311    0.582825
H     -8.191039   -0.426623    0.660728
H     -2.744923    0.762665    3.335728
H     -3.850036   -0.557248    3.860853
H     -2.399219   -0.963123    2.884563
H     -4.658980    0.417688   -3.077408
H     -6.254915    0.466970   -3.890956
H     -1.410598    1.525259    1.507524
H      0.987202    1.296728    1.106389
H      2.461313   -1.325853   -1.253069
H      3.026371   -2.047419    0.870842
H      2.573144   -0.530714    1.694173
H      5.129689   -1.176483    1.417542
H      4.591134    0.529360    1.252639
H      4.969484   -1.429988   -1.086505
H      7.003584   -0.154301   -1.697405
H      7.153023   -1.021862   -0.143591
H      7.472300    3.140385   -0.269697
H      4.824369    1.594152   -1.497257
H      4.389935    0.244009   -2.580085
H      2.801079    1.595104   -0.374145
H      2.274110    1.062255   -2.004876
H     -2.179175   -1.828648   -1.083952
