63
Lipophilicity 1809 2.4000000953674316
C     -1.209640    1.831367    2.685076
C     -0.323548    1.227831    1.598338
C      0.419833    2.317126    0.814637
C      1.189616    1.712837   -0.347952
C      2.400601    1.070776   -0.035594
C      3.137768    0.425798   -1.033446
C      2.656095    0.436949   -2.335669
C      1.456203    1.082370   -2.636967
O      1.055728    1.063539   -3.833393
N      0.726339    1.717673   -1.654234
C     -0.543888    2.387293   -2.023557
C     -1.739395    1.567560   -1.606740
C     -1.892157    0.249864   -2.070755
C     -3.015552   -0.499931   -1.712598
C     -3.997254    0.055751   -0.881397
C     -3.856573    1.373924   -0.425960
C     -2.738705    2.128755   -0.793277
C     -5.201408   -0.720689   -0.537329
C     -6.324366   -0.577446   -1.367789
C     -7.505291   -1.264020   -1.090180
C     -7.580154   -2.100264    0.021089
C     -6.473140   -2.256486    0.857592
C     -5.266949   -1.576911    0.595934
C     -4.119200   -1.790662    1.518806
N     -4.201156   -2.480544    2.677244
N     -2.977353   -2.460729    3.179647
N     -2.185916   -1.790796    2.360222
N     -2.859805   -1.356129    1.310120
O      4.344025   -0.241155   -0.772726
C      4.972848   -0.307776    0.505023
C      6.242896   -1.100120    0.389439
C      7.318308   -0.592585   -0.359013
C      8.494711   -1.336518   -0.494424
C      8.605437   -2.590454    0.115470
C      7.538816   -3.103912    0.859151
C      6.359089   -2.364211    0.994056
H     -0.597017    2.423738    3.398215
H     -1.983015    2.487636    2.231421
H     -1.719329    1.018424    3.243669
H     -0.955457    0.628619    0.910761
H      0.410927    0.541575    2.074046
H      1.134618    2.826144    1.498967
H     -0.287885    3.103379    0.497069
H      2.751367    1.067147    0.988596
H      3.216289   -0.061076   -3.118713
H     -0.619089    2.558340   -3.118920
H     -0.574832    3.415239   -1.606003
H     -1.147558   -0.195211   -2.717337
H     -3.122966   -1.511425   -2.084192
H     -4.617448    1.819190    0.204178
H     -2.652634    3.149217   -0.440110
H     -6.284363    0.072035   -2.233896
H     -8.365295   -1.144678   -1.736645
H     -8.498368   -2.631431    0.235450
H     -6.562650   -2.917684    1.710486
H     -1.166741   -1.630654    2.519361
H      4.281849   -0.780492    1.237059
H      5.214616    0.718624    0.858101
H      7.240970    0.373490   -0.842883
H      9.319115   -0.943496   -1.076497
H      9.515251   -3.166846    0.006880
H      7.623701   -4.077796    1.325768
H      5.539083   -2.778942    1.566326
