75
Lipophilicity 612 1.6399999856948853
C     -7.604635    2.332534    0.041427
N     -6.360615    2.039907    0.758998
C     -5.165606    2.298974   -0.066924
C     -4.821661    3.796062   -0.132987
C     -3.998930    1.538882    0.505758
O     -3.706713    1.675571    1.725424
N     -3.201952    0.689525   -0.335307
C     -2.046815   -0.053082    0.187636
C     -1.565234   -1.163907   -0.786111
C     -2.660996   -2.217421   -1.043588
C     -2.105274   -3.433463   -1.814563
C     -0.926024   -3.085683   -2.745669
C     -1.025172   -1.650585   -3.271408
C     -0.993210   -0.617110   -2.126868
C     -0.918209    0.891981    0.522266
O     -0.690064    1.883168   -0.224907
N     -0.084078    0.641527    1.663771
C      1.085675    1.472982    1.974027
C      1.563144    1.280131    3.445825
C      3.062509    0.914623    3.471671
C      3.861350    2.038653    2.768552
C      3.384347    2.204650    1.300782
C      2.268135    1.182271    0.995841
N      2.850176   -0.167071    1.229284
C      2.050723   -1.270360    0.660303
C      2.950341   -2.444319    0.264629
C      3.897298   -2.051046   -0.838308
C      5.202090   -1.625681   -0.538211
C      6.065104   -1.224689   -1.562921
C      5.629786   -1.238520   -2.890870
C      4.329313   -1.648986   -3.196301
C      3.463143   -2.050091   -2.174583
C      3.233749   -0.384047    2.652934
H     -7.657174    1.753212   -0.904943
H     -8.467046    2.030290    0.670673
H     -7.696664    3.417740   -0.174889
H     -6.333355    2.625853    1.627024
H     -5.339303    1.939221   -1.106500
H     -5.630346    4.360771   -0.640690
H     -4.674067    4.214128    0.886037
H     -3.887746    3.945107   -0.715551
H     -3.481696    0.585886   -1.335823
H     -2.363059   -0.558480    1.127331
H     -0.740946   -1.700816   -0.265963
H     -3.485784   -1.761572   -1.633814
H     -3.092748   -2.567370   -0.080166
H     -2.928134   -3.881734   -2.412726
H     -1.767157   -4.206008   -1.089581
H     -0.906620   -3.795343   -3.600243
H      0.031438   -3.201905   -2.192048
H     -1.973507   -1.541410   -3.841705
H     -0.185990   -1.453390   -3.972999
H      0.058430   -0.298318   -1.965298
H     -1.545517    0.284658   -2.463727
H     -0.347933   -0.144002    2.300343
H      0.785874    2.539515    1.858738
H      1.405969    2.220997    4.018026
H      0.985854    0.489684    3.971267
H      3.415668    0.773241    4.516008
H      3.726458    2.994441    3.320549
H      4.945359    1.790638    2.787324
H      3.012460    3.238859    1.131815
H      4.237092    2.036574    0.606993
H      1.953962    1.306263   -0.064114
H      1.283568   -1.628052    1.379945
H      1.515738   -0.934213   -0.251114
H      3.513016   -2.808100    1.151488
H      2.311527   -3.286957   -0.079085
H      5.549734   -1.601789    0.487176
H      7.070192   -0.900139   -1.326449
H      6.298478   -0.927229   -3.682507
H      3.991077   -1.654094   -4.224338
H      2.454776   -2.356527   -2.422770
H      4.298120   -0.700959    2.689167
H      2.638307   -1.194049    3.131381
