40
Lipophilicity 732 1.2799999713897705
C      2.928203   -1.635471    1.804945
N      2.711511   -1.353127    0.375283
C      3.963056   -0.861008   -0.221552
C      1.625688   -0.362532    0.219202
C      1.064730   -0.370918   -1.211434
N     -0.237343    0.311629   -1.242480
C     -1.456055   -0.433678   -1.601299
C     -2.061637   -1.113544   -0.398456
C     -3.260225   -0.636565    0.159208
C     -3.816588   -1.261025    1.279531
C     -3.187770   -2.370809    1.846063
C     -2.006866   -2.864973    1.287945
C     -1.448133   -2.246359    0.166719
C     -0.279287    1.740515   -1.059302
C     -1.232913    2.333897   -0.215050
C     -1.232768    3.719350   -0.038783
C     -0.289803    4.501991   -0.705772
C      0.643758    3.882588   -1.542330
N      0.631218    2.530890   -1.693208
H      3.193658   -0.709716    2.364646
H      2.012743   -2.081785    2.249618
H      3.741182   -2.382883    1.932628
H      3.852130   -0.762280   -1.320833
H      4.261725    0.119072    0.210598
H      4.782114   -1.591231   -0.050004
H      0.786132   -0.612436    0.907112
H      1.969903    0.663278    0.490452
H      1.769917    0.141277   -1.906524
H      0.967067   -1.423891   -1.565524
H     -2.192916    0.251845   -2.074226
H     -1.221256   -1.194800   -2.375695
H     -3.763608    0.218810   -0.269466
H     -4.734624   -0.883394    1.708943
H     -3.618071   -2.852451    2.715914
H     -1.524921   -3.729703    1.723954
H     -0.537979   -2.653549   -0.254699
H     -1.949081    1.736413    0.322733
H     -1.956864    4.185601    0.619318
H     -0.279895    5.576958   -0.574065
H      1.383866    4.474011   -2.064110
