60
Lipophilicity 1875 0.699999988079071
C      6.957861    0.410129    0.604658
C      6.180998   -0.283742   -0.511410
N      4.765704    0.119103   -0.493016
C      4.340022    1.244681   -1.343654
C      4.222052    0.822932   -2.807675
C      3.864568   -0.492042    0.462481
O      4.325490   -1.204729    1.395163
C      2.405387   -0.298232    0.397772
C      1.675402   -0.748165   -0.710173
C      0.290793   -0.569632   -0.760609
C     -0.386794    0.058843    0.300443
C      0.347939    0.483860    1.420899
C      1.732666    0.302702    1.470204
C     -1.897843    0.235392    0.267164
N     -2.360444    0.917080   -0.976565
C     -3.830770    1.167603   -0.964693
C     -4.183946    2.630014   -0.645593
N     -3.592629    3.570283   -1.614519
C     -2.332384    3.090827   -2.208960
C     -1.578661    2.150142   -1.260516
C     -2.526150   -1.146826    0.433138
C     -2.820224   -1.938055   -0.696402
C     -3.364294   -3.215959   -0.552967
C     -3.607704   -3.740122    0.716454
C     -3.297578   -2.987729    1.856229
C     -3.510282   -3.506489    3.140580
C     -3.177252   -2.745663    4.262262
C     -2.635656   -1.470980    4.090582
N     -2.437649   -0.976502    2.839770
C     -2.750921   -1.688890    1.719995
H      6.564138    0.117156    1.599340
H      8.028339    0.118904    0.549935
H      6.883551    1.512556    0.495353
H      6.651297   -0.016070   -1.481000
H      6.265454   -1.387179   -0.402883
H      3.367164    1.660754   -1.006030
H      5.079329    2.070539   -1.264257
H      3.823817    1.670426   -3.405428
H      3.536028   -0.039305   -2.913611
H      5.213946    0.544414   -3.218660
H      2.171666   -1.261002   -1.522785
H     -0.252137   -0.919906   -1.628169
H     -0.149785    0.954392    2.259723
H      2.281851    0.639642    2.340985
H     -2.206456    0.872442    1.128007
H     -4.237085    0.915372   -1.967532
H     -4.368048    0.517320   -0.240326
H     -5.290109    2.747997   -0.634297
H     -3.816825    2.880882    0.373263
H     -4.279463    3.727629   -2.389634
H     -2.535395    2.555760   -3.164717
H     -1.690322    3.967332   -2.439864
H     -1.347791    2.702913   -0.321104
H     -0.617578    1.874588   -1.744342
H     -2.634385   -1.565682   -1.695520
H     -3.594186   -3.804768   -1.431801
H     -4.027211   -4.735060    0.807592
H     -3.927083   -4.497526    3.276091
H     -3.337250   -3.141620    5.257181
H     -2.373170   -0.872735    4.953449
