55
Lipophilicity 360 2.4800000190734863
C     -3.062789    4.236697   -3.666446
C     -2.996094    2.833603   -3.157991
O     -4.015475    2.096876   -3.242914
N     -1.809773    2.369982   -2.495356
C     -1.576902    1.000714   -2.123624
C     -2.035889   -0.071120   -2.932526
C     -1.763113   -1.403757   -2.581465
C     -1.032549   -1.642151   -1.415526
C     -0.591577   -0.611022   -0.622186
C     -0.819417    0.723838   -0.966877
C      0.122015   -1.183027    0.422002
C      0.095128   -2.554066    0.191019
N     -0.620259   -2.829811   -0.924401
C     -0.824848   -4.159811   -1.502792
C      0.142087   -4.417633   -2.667913
C      1.614386   -4.424897   -2.236424
O      1.848830   -5.403746   -1.260055
C      0.813208   -0.518717    1.542099
C      0.266221    0.630255    2.160006
C      0.963371    1.237942    3.224287
N      0.477083    2.424047    3.877563
C     -0.747232    3.109751    3.469056
C     -0.653397    4.624868    3.526484
C     -0.589247    3.909878    2.186316
N      2.126278    0.657646    3.620409
N      2.933284    1.051991    4.593635
C      3.963641    0.170726    4.633222
C      3.787339   -0.798967    3.653862
C      4.645163   -1.912050    3.352209
N      5.335458   -2.808344    3.108998
C      2.612645   -0.445424    3.042273
N      1.980525   -1.051879    2.009640
H     -2.087256    4.524404   -4.111458
H     -3.298325    4.923006   -2.826743
H     -3.849640    4.328712   -4.444937
H     -1.115051    3.087909   -2.187316
H     -2.569790    0.122238   -3.852990
H     -2.100220   -2.214807   -3.212919
H     -0.415322    1.533627   -0.375540
H      0.575820   -3.305440    0.805195
H     -0.694307   -4.939666   -0.720990
H     -1.869836   -4.245979   -1.870382
H     -0.104440   -5.399654   -3.126448
H     -0.000727   -3.640402   -3.448797
H      1.895256   -3.431644   -1.828053
H      2.259788   -4.608937   -3.124941
H      1.832322   -6.279742   -1.726931
H     -0.691684    1.015345    1.840868
H      0.978370    2.778283    4.723021
H     -1.730382    2.626172    3.650525
H     -1.619675    5.136816    3.718718
H      0.321651    5.037679    3.863322
H      0.423662    3.887799    1.729723
H     -1.517243    3.989856    1.581830
H      4.788929    0.232031    5.330200
