79
Lipophilicity 925 3.990000009536743
C     -5.763983    3.508629   -0.857035
C     -5.495779    3.070692    0.580333
N     -4.494987    3.927124    1.242091
C     -4.804395    5.333659    1.537005
C     -5.663940    5.461117    2.791082
C     -3.329677    3.325926    1.842997
O     -2.958757    3.690756    2.992447
C     -2.554350    2.287359    1.135794
C     -2.078507    1.163857    1.827843
C     -1.363140    0.171341    1.154366
C     -1.093647    0.293937   -0.222992
C     -1.549267    1.435580   -0.902761
C     -2.273269    2.422297   -0.230032
C     -0.305489   -0.773059   -0.983136
N      1.167727   -0.598012   -0.850786
C      1.659197   -0.545276    0.540248
C      3.191563   -0.589582    0.541153
N      3.774438    0.518738   -0.244084
C      3.691931    1.814904    0.464870
C      4.689190    2.790986   -0.101742
C      4.259782    3.905524   -0.843291
C      5.195229    4.795899   -1.379149
C      6.562181    4.579821   -1.181756
F      7.467133    5.438604   -1.712032
C      6.996477    3.468404   -0.453405
C      6.064147    2.577463    0.086661
C      3.208473    0.564650   -1.611950
C      1.670422    0.555737   -1.618837
C     -0.747258   -2.200830   -0.660518
C     -2.113855   -2.496142   -0.480137
C     -2.536491   -3.807916   -0.256751
C     -1.613188   -4.853453   -0.256139
C     -0.255657   -4.595969   -0.502590
N      0.712840   -5.656813   -0.514933
C      0.465621   -6.956617   -1.071383
O     -0.553885   -7.167191   -1.783897
C      1.479882   -8.045148   -0.889695
C      0.919071   -9.406715   -0.507431
C      1.599681   -8.544534    0.542294
C      0.168916   -3.274051   -0.698419
H     -6.307524    4.474180   -0.881262
H     -6.398226    2.748885   -1.359412
H     -4.817309    3.605560   -1.422192
H     -6.446153    3.091869    1.154173
H     -5.158994    2.011293    0.562784
H     -3.862779    5.907462    1.678801
H     -5.336384    5.801711    0.684532
H     -6.621812    4.915047    2.668821
H     -5.891213    6.532169    2.973753
H     -5.124133    5.062799    3.672864
H     -2.280733    1.043212    2.885014
H     -1.021399   -0.695009    1.706612
H     -1.340483    1.565844   -1.957409
H     -2.592650    3.303358   -0.769772
H     -0.563627   -0.671666   -2.062152
H      1.287006   -1.418956    1.116343
H      1.319311    0.379676    1.054291
H      3.523162   -1.556258    0.103142
H      3.569072   -0.574007    1.586584
H      3.934339    1.683584    1.543404
H      2.664852    2.235172    0.428304
H      3.205107    4.081529   -1.012088
H      4.859484    5.652018   -1.950691
H      8.055472    3.293157   -0.309316
H      6.412215    1.720161    0.649035
H      3.576571    1.455166   -2.164517
H      3.570347   -0.322269   -2.175749
H      1.338835    0.481529   -2.677958
H      1.276670    1.510363   -1.210080
H     -2.858605   -1.711372   -0.511573
H     -3.585445   -4.016538   -0.089718
H     -1.959204   -5.860169   -0.060713
H      1.684805   -5.441503   -0.193019
H      2.422574   -8.038847   -1.477586
H      1.532856  -10.267240   -0.849849
H     -0.184687   -9.472036   -0.390378
H      0.894122   -8.102267    1.281062
H      2.612797   -8.902941    0.825672
H      1.217384   -3.096365   -0.900243
