18
Lipophilicity 370 2.0199999809265137
F      3.651945   -1.253175    0.244750
C      3.003333   -0.325232    1.037688
F      3.639637    0.896895    0.927906
C      1.583508   -0.192368    0.593909
N      0.525134   -0.457227    1.406049
C     -0.528616   -0.209307    0.607380
C     -1.881355   -0.317525    0.921938
C     -2.814000   -0.002516   -0.085283
C     -2.374565    0.407642   -1.365631
C     -0.999045    0.506124   -1.649123
C     -0.107740    0.186270   -0.627480
N      1.230037    0.202830   -0.654367
H      3.044025   -0.661033    2.095293
H     -2.205263   -0.632493    1.905410
H     -3.873688   -0.074844    0.122029
H     -3.099839    0.647298   -2.132234
H     -0.648485    0.818606   -2.624193
H      1.854978    0.460056   -1.450799
