48
Lipophilicity 465 3.190000057220459
C     -3.562348    2.824940   -1.474468
O     -4.369271    1.735677   -1.037378
C     -3.884783    0.472265   -0.662572
C     -2.507031    0.183607   -0.714845
C     -2.017358   -1.071107   -0.328365
N     -0.613915   -1.377336   -0.395736
C      0.427618   -0.441297   -0.072836
C      1.756839   -0.730587   -0.410533
C      2.774055    0.162996   -0.061991
O      4.092854   -0.137790   -0.432686
C      5.245991    0.269743    0.257017
C      5.258521    0.414714    1.654732
C      6.428514    0.804209    2.307127
C      7.583228    1.034759    1.559669
N      7.564064    0.872699    0.210589
C      6.437900    0.493542   -0.454841
C      6.482452    0.332547   -1.942947
C      2.440679    1.353122    0.604812
C      1.108336    1.603388    0.936537
N      0.142805    0.708488    0.600427
C     -2.916228   -2.062765    0.071147
C     -4.295747   -1.800299    0.130602
O     -5.217809   -2.775973    0.544239
C     -4.873027   -4.100254    0.938427
C     -4.786722   -0.533997   -0.228825
O     -6.179601   -0.347304   -0.134855
C     -6.899104    0.843421   -0.435239
H     -3.023078    2.551568   -2.405872
H     -4.215416    3.695993   -1.686636
H     -2.839710    3.108470   -0.680232
H     -1.811306    0.924856   -1.080076
H     -0.338575   -2.362912   -0.610883
H      2.000658   -1.644805   -0.937446
H      4.372151    0.208431    2.240056
H      6.442165    0.919024    3.383266
H      8.497887    1.335979    2.052529
H      5.765333    1.034499   -2.418243
H      6.213186   -0.709271   -2.216692
H      7.501014    0.549181   -2.329388
H      3.197527    2.086031    0.851126
H      0.840341    2.512737    1.457549
H     -2.528667   -3.034394    0.346354
H     -5.797223   -4.648489    1.213433
H     -4.380918   -4.633212    0.097602
H     -4.200266   -4.073026    1.821519
H     -6.772416    1.110041   -1.505508
H     -6.565526    1.671648    0.224672
H     -7.978071    0.666240   -0.249006
