19
Lipophilicity 489 0.8500000238418579
C      2.631262   -0.575978    0.274735
C      1.189633   -0.176140    0.166442
C      0.182118   -1.150076    0.187733
C     -1.156830   -0.762015    0.050515
C     -2.246232   -1.786424    0.066748
N     -1.465030    0.551846   -0.124968
C     -0.507851    1.517663   -0.166154
N     -0.885528    2.881247   -0.357022
C      0.840838    1.167450   -0.026588
H      3.228941    0.235581    0.741881
H      3.033446   -0.784744   -0.738530
H      2.739239   -1.486271    0.902258
H      0.434802   -2.196846    0.310385
H     -3.242842   -1.296068    0.059795
H     -2.160229   -2.436406   -0.829147
H     -2.164553   -2.410601    0.981571
H     -1.892093    3.137944   -0.462730
H     -0.166664    3.638073   -0.393375
H      1.607572    1.931767   -0.068778
