74
Lipophilicity 167 2.5999999046325684
C     -7.254153    3.819840    0.884720
N     -7.421226    2.563043    0.140196
C     -6.246653    2.178602   -0.674287
C     -5.724597    3.330356   -1.554199
C     -5.147460    1.582922    0.176471
O     -5.279732    1.518805    1.430179
N     -3.971356    1.042816   -0.446846
C     -2.893183    0.412291    0.325564
C     -3.231200   -1.076003    0.613315
C     -2.218746   -1.714242    1.590096
C     -2.613260   -3.158808    1.922301
C     -2.737838   -4.001714    0.647304
C     -3.737215   -3.374623   -0.332342
C     -3.346123   -1.930234   -0.670247
C     -1.562311    0.585974   -0.373382
O     -1.492118    0.495542   -1.629905
N     -0.373032    0.804755    0.401115
C      0.962121    0.897068   -0.195115
C      1.386210    2.367358   -0.274621
C      2.830196    2.485231   -0.760454
C      3.762007    1.670179    0.145474
N      3.369796    0.246232    0.211547
C      3.701496   -0.501928   -1.023494
C      3.981062   -1.985122   -0.726122
C      5.044081   -2.205975    0.363243
C      6.378026   -1.612785   -0.014083
C      7.170779   -2.224501   -0.999606
C      8.387827   -1.651202   -1.380478
C      8.823426   -0.467346   -0.779143
C      8.042113    0.145910    0.203657
C      6.822423   -0.421532    0.584914
C      1.964724    0.082653    0.652752
H     -6.275913    3.857749    1.408081
H     -8.053130    3.894497    1.651407
H     -7.343996    4.696367    0.206676
H     -8.245683    2.675614   -0.496403
H     -6.573614    1.369033   -1.364880
H     -5.011879    2.944752   -2.314330
H     -5.200312    4.095557   -0.941844
H     -6.569323    3.809374   -2.093960
H     -3.954769    0.976333   -1.489652
H     -2.818425    0.938690    1.302740
H     -4.225321   -1.088359    1.115062
H     -1.199503   -1.714001    1.145528
H     -2.184096   -1.126487    2.533024
H     -3.580549   -3.165816    2.471474
H     -1.841112   -3.607316    2.583848
H     -1.742060   -4.090961    0.159236
H     -3.080423   -5.023871    0.916459
H     -3.761309   -3.976767   -1.266197
H     -4.756721   -3.392181    0.111668
H     -4.119587   -1.503730   -1.344127
H     -2.378533   -1.941141   -1.216637
H     -0.472300    0.985018    1.425845
H      0.940402    0.477491   -1.222561
H      1.294838    2.842637    0.727801
H      0.715394    2.910740   -0.975679
H      2.908466    2.126607   -1.809934
H      3.138721    3.552703   -0.739420
H      3.740109    2.099399    1.171108
H      4.810730    1.772268   -0.207904
H      2.889417   -0.431322   -1.775061
H      4.609188   -0.081287   -1.509913
H      3.042065   -2.488329   -0.414242
H      4.310174   -2.481025   -1.665440
H      4.684677   -1.788303    1.329402
H      5.169474   -3.299005    0.521021
H      6.840435   -3.137960   -1.477577
H      8.990533   -2.121269   -2.145366
H      9.764001   -0.023265   -1.077033
H      8.377621    1.065144    0.666329
H      6.222775    0.072266    1.340270
H      1.671595   -0.987815    0.635942
H      1.891856    0.404411    1.715063
