27
Lipophilicity 1252 2.200000047683716
N     -6.279869    2.325001    1.211351
C     -5.358303    2.005872    0.588367
C     -4.211837    1.608858   -0.186556
C     -4.247197    1.694111   -1.583450
C     -3.134756    1.308933   -2.335556
C     -1.983906    0.837680   -1.697240
C     -1.936729    0.747639   -0.295184
C     -3.059279    1.136702    0.456031
C     -0.724545    0.250853    0.385210
O     -0.601602    0.136756    1.685732
N      0.575318   -0.326433    1.976715
C      1.184226   -0.496727    0.786995
N      0.396745   -0.143182   -0.251059
C      2.556016   -1.011593    0.644086
C      3.143471   -1.169441   -0.621520
C      4.447347   -1.661005   -0.715197
C      5.151754   -1.989442    0.443976
C      4.537748   -1.820275    1.686447
N      3.267303   -1.340339    1.758582
H     -5.133265    2.057732   -2.089943
H     -3.164160    1.375650   -3.415499
H     -1.133023    0.544455   -2.299431
H     -3.038489    1.073179    1.538073
H      2.602696   -0.916540   -1.524927
H      4.910954   -1.787104   -1.685075
H      6.162596   -2.370965    0.380519
H      5.070786   -2.070376    2.593942
