42
Lipophilicity 946 3.200000047683716
N      3.841048   -2.237098    2.625594
C      2.711271   -1.735841    1.906282
C      1.436261   -1.776695    2.478674
C      0.329115   -1.287040    1.779898
C      0.471022   -0.749723    0.478613
C      1.769655   -0.709383   -0.076869
C      2.872761   -1.198307    0.626220
C     -0.707370   -0.174125   -0.344009
C     -2.098537   -0.211288    0.380183
C     -2.895444   -1.530633    0.227430
C     -2.031100   -2.741683   -0.139126
C     -1.155809   -2.498307   -1.382134
C     -0.857818   -1.010496   -1.651459
C     -0.383998    1.310451   -0.617536
C     -0.320517    1.865661   -1.917160
C     -0.029849    3.220467   -2.102816
C      0.199045    4.054199   -1.003210
N      0.496339    5.439343   -1.198362
C      0.133132    3.522811    0.288478
C     -0.156980    2.170107    0.479712
H      4.797137   -2.209721    2.206025
H      3.729795   -2.639548    3.582957
H      1.298413   -2.190410    3.469916
H     -0.627993   -1.356953    2.271442
H      1.934298   -0.284368   -1.058634
H      3.855181   -1.153719    0.173076
H     -2.746472    0.585564   -0.051632
H     -2.012950    0.072788    1.448662
H     -3.440743   -1.743585    1.172181
H     -3.661495   -1.402714   -0.569561
H     -2.693803   -3.614432   -0.326017
H     -1.393113   -3.018736    0.723753
H     -1.659915   -2.924766   -2.276909
H     -0.197367   -3.048165   -1.256569
H      0.053255   -0.944884   -2.284062
H     -1.702086   -0.601940   -2.251393
H     -0.490206    1.271819   -2.802367
H      0.016029    3.621191   -3.107823
H      0.547117    5.845109   -2.159436
H      0.668120    6.069354   -0.383212
H      0.306072    4.156897    1.148994
H     -0.201502    1.788799    1.492206
