49
Lipophilicity 1749 0.9200000166893005
C     -3.804971    3.713715    0.337056
N     -3.230363    2.423806    0.749263
C     -4.305381    1.473818    1.120706
C     -3.830817    0.004609    1.121980
N     -2.366252   -0.071505    1.208688
C     -1.571761    0.694997    0.235808
C     -2.377366    1.875088   -0.319526
C     -1.731692   -0.738613    2.321191
O     -2.356430   -0.862554    3.409299
C     -0.344952   -1.250698    2.238522
C      0.505106   -1.148009    3.351888
C      1.821152   -1.609167    3.280432
C      2.301123   -2.180123    2.099457
C      1.459483   -2.313176    0.982453
C      1.999129   -2.894934   -0.299085
C      2.897367   -1.896173   -0.989506
N      4.224719   -1.946779   -0.698567
N      5.100048   -1.070546   -1.188788
C      4.707869   -0.051221   -1.994986
O      5.567856    0.763971   -2.428462
C      3.351609    0.082884   -2.332435
C      2.904613    1.142018   -3.146428
C      1.553139    1.260797   -3.470145
C      0.636947    0.321821   -2.999935
C      1.062981   -0.735812   -2.192834
C      2.421432   -0.863283   -1.833023
C      0.130745   -1.863056    1.065556
H     -4.465160    4.111316    1.137655
H     -2.994423    4.457833    0.177630
H     -4.391805    3.612133   -0.603446
H     -4.661776    1.731572    2.141831
H     -5.175897    1.558959    0.429348
H     -4.151091   -0.482032    0.174432
H     -4.324400   -0.551697    1.948067
H     -1.265642    0.038915   -0.602558
H     -0.659105    1.096445    0.729251
H     -2.997939    1.539998   -1.183027
H     -1.663419    2.644796   -0.689709
H      0.156225   -0.692873    4.271148
H      2.473784   -1.514620    4.139036
H      3.329056   -2.518453    2.054783
H      2.588866   -3.805260   -0.055692
H      1.186414   -3.247402   -0.966232
H      6.107430   -1.168789   -0.930579
H      3.596764    1.882625   -3.530373
H      1.216195    2.081923   -4.091173
H     -0.409780    0.413301   -3.261453
H      0.317779   -1.443267   -1.867632
H     -0.537409   -2.007296    0.227442
