37
Lipophilicity 593 2.799999952316284
C     -5.786086   -0.708875   -1.299836
C     -4.576549   -0.999629   -0.463745
O     -4.312465   -2.200447   -0.184193
N     -3.750186    0.063205    0.059919
C     -4.286911    1.429311    0.190057
C     -3.649108    2.148409    1.384213
O     -2.227435    2.049757    1.328724
C     -1.599091    0.865655    0.937354
C     -0.228981    0.691139    1.138240
C      0.386296   -0.507712    0.753311
C      1.863512   -0.698257    0.931490
O      2.540568   -0.208898   -0.222614
C      3.932458   -0.228720   -0.393879
C      4.463867    0.288072   -1.582711
C      5.845198    0.290522   -1.799936
C      6.707220   -0.224620   -0.828615
C      6.188753   -0.742683    0.360958
C      4.807610   -0.746857    0.581930
C     -0.391396   -1.497532    0.134725
N     -1.721604   -1.298030   -0.064698
C     -2.345522   -0.150705    0.323639
H     -5.585398    0.144793   -1.980366
H     -6.046914   -1.593631   -1.918570
H     -6.646006   -0.466303   -0.641657
H     -5.386543    1.408834    0.347942
H     -4.072063    1.995878   -0.741500
H     -3.944996    3.218482    1.387461
H     -4.006821    1.680306    2.326673
H      0.350286    1.482988    1.597308
H      2.091928   -1.777430    1.072391
H      2.209804   -0.146847    1.832972
H      3.802880    0.689202   -2.340589
H      6.247028    0.691854   -2.721333
H      7.776301   -0.222348   -0.997546
H      6.857590   -1.141514    1.112760
H      4.432218   -1.153552    1.510881
H      0.060560   -2.423816   -0.196019
