41
Lipophilicity 1257 2.6700000762939453
C      4.038117   -2.424853    0.597534
C      3.750541   -1.704836   -0.715282
O      2.818706   -0.642485   -0.514308
C      3.093413    0.588988    0.108262
C      4.407294    0.985129    0.432886
C      4.647784    2.230980    1.015708
C      3.588094    3.097377    1.279736
C      2.281641    2.719241    0.967978
C      2.020125    1.464624    0.389497
C      0.619566    1.078206    0.090466
C     -0.215865    1.945673   -0.619277
C     -1.535448    1.590741   -0.901301
C     -2.066546    0.350362   -0.477400
C     -1.219092   -0.521294    0.254983
C      0.108572   -0.148160    0.532659
C     -1.724775   -1.823356    0.736262
O     -0.977358   -2.605632    1.385180
C     -3.107569   -2.212213    0.458516
O     -3.538553   -3.321155    0.878101
C     -3.982364   -1.304852   -0.310846
C     -5.309253   -1.685842   -0.584232
C     -6.150663   -0.849820   -1.313161
C     -5.680941    0.373166   -1.779354
C     -4.368182    0.769830   -1.518369
C     -3.489295   -0.056431   -0.776453
H      4.516560   -1.737891    1.325366
H      3.090899   -2.808828    1.032161
H      4.721660   -3.279867    0.412111
H      4.686643   -1.331304   -1.180820
H      3.299003   -2.433385   -1.421021
H      5.254061    0.345700    0.230765
H      5.660050    2.527283    1.259058
H      3.778711    4.062732    1.730639
H      1.469897    3.399896    1.194074
H      0.158769    2.900186   -0.969071
H     -2.115254    2.310180   -1.453459
H      0.746898   -0.807640    1.108715
H     -5.698201   -2.634120   -0.234643
H     -7.169519   -1.152144   -1.518707
H     -6.337436    1.019482   -2.348008
H     -4.070688    1.726330   -1.912453
