39
Lipophilicity 548 2.0999999046325684
C     -2.072592   -0.602982    2.284794
C     -1.860382   -1.403065    0.984847
C     -0.365607   -1.741038    0.770080
C      0.500550   -0.528684    0.567335
O      0.977893    0.067323    1.570762
N      0.764325   -0.041814   -0.756347
C      1.552791    1.162109   -1.006253
C      3.011592    0.890757   -0.759214
C      3.730409    0.063545   -1.637882
C      5.081859   -0.207974   -1.402725
C      5.722896    0.340592   -0.288529
C      5.013086    1.160565    0.593073
C      3.661455    1.434792    0.361514
C     -2.488143   -0.710541   -0.256644
C     -4.006676   -0.853495   -0.315288
C     -4.439063    0.440277   -0.928857
C     -3.332135    1.390904   -0.527719
O     -2.148866    0.660463   -0.302286
H     -1.611852   -1.139221    3.141523
H     -1.618194    0.407325    2.215146
H     -3.152849   -0.484957    2.505132
H     -2.375902   -2.380771    1.118956
H      0.011961   -2.310940    1.647241
H     -0.262049   -2.416195   -0.106931
H      0.357432   -0.546996   -1.575500
H      1.419669    1.474995   -2.064658
H      1.178409    1.994747   -0.371375
H      3.242908   -0.371086   -2.501922
H      5.631673   -0.845151   -2.083300
H      6.768750    0.128910   -0.107355
H      5.509896    1.582530    1.457139
H      3.123424    2.068164    1.055822
H     -2.081475   -1.189556   -1.175778
H     -4.458418   -0.952996    0.694610
H     -4.314136   -1.721801   -0.938409
H     -4.473127    0.343413   -2.036828
H     -5.428886    0.771732   -0.546110
H     -3.609742    1.920583    0.409600
H     -3.160883    2.145538   -1.324534
