50
Lipophilicity 79 2.5999999046325684
N     -0.451617    6.535046    1.502193
C      0.138558    5.229983    1.217628
C      1.456448    5.384974    0.448591
C      2.160282    4.016112    0.317914
C      1.223713    2.849686    0.076809
C      1.775123    1.570082   -0.094742
C      0.947771    0.434464   -0.166467
O      1.465981   -0.866502   -0.268001
C      2.615199   -1.342041    0.380385
O      3.295534   -0.586548    1.124839
C      2.986468   -2.765384    0.241530
C      3.987790   -3.327392    1.058224
C      4.288438   -4.690199    0.971813
C      3.602594   -5.502718    0.063698
C      2.611088   -4.953253   -0.755571
C      2.302580   -3.592418   -0.669308
C     -0.445435    0.587764   -0.155072
O     -1.245698   -0.563341   -0.223491
C     -2.506284   -0.636225   -0.835182
O     -2.884153    0.269160   -1.630583
C     -3.373533   -1.808153   -0.573986
C     -4.609865   -1.955938   -1.236648
C     -5.410658   -3.080330   -0.999828
C     -4.995395   -4.056674   -0.091088
C     -3.772124   -3.920305    0.572116
C     -2.962427   -2.803772    0.331582
C     -1.005693    1.865321    0.003044
C     -0.183271    2.990660    0.164650
C     -0.817358    4.335891    0.410126
H     -0.915983    6.915764    0.638664
H     -1.210574    6.402091    2.218529
H      0.360412    4.732666    2.191118
H      1.271641    5.821854   -0.568341
H      2.126966    6.078355    1.009221
H      2.909403    4.066715   -0.500140
H      2.710099    3.815212    1.255941
H      2.849587    1.464995   -0.161017
H      4.513998   -2.721379    1.790184
H      5.047091   -5.119728    1.618886
H      3.832370   -6.558912    0.004694
H      2.074582   -5.584605   -1.452543
H      1.524783   -3.190636   -1.305100
H     -4.953789   -1.207122   -1.936848
H     -6.353649   -3.193765   -1.526146
H     -5.617963   -4.925644    0.092471
H     -3.446519   -4.683989    1.265746
H     -2.012245   -2.729017    0.847922
H     -2.082103    1.978282    0.069758
H     -1.774560    4.217817    0.973799
H     -1.047606    4.803094   -0.576329
