57
Lipophilicity 897 2.259999990463257
C     -4.445136    5.184268    0.754507
O     -3.945296    3.871312    0.520589
C     -2.596912    3.501803    0.643370
C     -2.249942    2.172846    0.386614
C     -0.915167    1.731914    0.492953
O     -0.553445    0.409191    0.181053
C     -1.435440   -0.668731   -0.133557
C     -0.612055   -1.801261   -0.761526
C     -1.480018   -3.043260   -0.989193
N     -2.075823   -3.490693    0.285789
C     -2.849499   -4.722742    0.070616
C     -2.947879   -2.437659    0.842537
C     -2.131274   -1.175192    1.140748
C      0.086275    2.653779    0.891697
C      1.450360    2.305519    1.052183
N      1.899757    0.950083    0.939994
C      2.776343    0.487957   -0.106367
C      3.244323    1.358716   -1.111959
C      4.077350    0.884015   -2.130351
C      4.439973   -0.464425   -2.172319
C      3.965859   -1.341433   -1.195337
O      4.286355   -2.702303   -1.245223
C      3.588533   -3.654441   -0.439497
C      3.313055   -3.069945    0.950907
O      2.737422   -1.767130    0.835043
C      3.157615   -0.866052   -0.151261
N      2.355089    3.264027    1.384527
C      1.985604    4.553859    1.575650
N      0.685036    4.912996    1.454088
C     -0.267718    4.004073    1.122047
C     -1.596611    4.417852    1.004825
H     -5.540197    5.191019    0.580692
H     -3.970225    5.904696    0.055478
H     -4.249496    5.485299    1.805275
H     -3.037757    1.495630    0.090684
H     -2.188682   -0.340529   -0.882969
H     -0.189900   -1.460509   -1.731713
H      0.234196   -2.067369   -0.091699
H     -0.829053   -3.844802   -1.403202
H     -2.270394   -2.815704   -1.741588
H     -3.297442   -5.066574    1.027264
H     -2.180308   -5.534129   -0.287053
H     -3.662191   -4.566208   -0.672875
H     -3.775574   -2.190611    0.138756
H     -3.399815   -2.786912    1.796671
H     -2.805732   -0.393328    1.547804
H     -1.367102   -1.406546    1.915997
H      1.512706    0.263271    1.625968
H      2.965812    2.403338   -1.119336
H      4.436308    1.562028   -2.894409
H      5.072411   -0.830164   -2.971367
H      2.621807   -3.903954   -0.929773
H      4.193962   -4.581526   -0.352173
H      4.270143   -2.993144    1.511210
H      2.622878   -3.731547    1.515786
H      2.727384    5.294535    1.839165
H     -1.840474    5.454798    1.195607
