38
Lipophilicity 942 3.309999942779541
C     -6.843361    0.952564   -0.218494
O     -6.059951   -0.228063   -0.359137
C     -4.669258   -0.280978   -0.183280
C     -3.907090    0.853470    0.156736
C     -2.522674    0.748859    0.320333
C     -1.879849   -0.485345    0.142167
C     -2.639409   -1.616367   -0.190411
C     -4.023613   -1.511497   -0.353424
C     -0.412737   -0.596203    0.323512
C      0.502473    0.064539   -0.534385
C      0.020040    0.839461   -1.744185
C      1.886088   -0.019532   -0.239400
C      2.872110    0.653615   -0.991291
C      4.225295    0.524429   -0.666600
C      4.624993   -0.275791    0.417898
O      5.971163   -0.437306    0.778298
C      7.064027    0.174586    0.101000
C      3.651974   -0.936244    1.172979
C      2.294638   -0.810268    0.859062
O      1.399169   -1.439056    1.608027
C      0.093663   -1.360045    1.392050
O     -0.689038   -1.970524    2.168885
H     -6.753507    1.349579    0.814722
H     -7.907346    0.707007   -0.413403
H     -6.514870    1.718447   -0.952498
H     -4.374110    1.818517    0.297875
H     -1.950131    1.629267    0.585853
H     -2.158445   -2.576910   -0.329227
H     -4.598468   -2.391198   -0.613845
H      0.607558    0.552872   -2.641208
H      0.131274    1.928136   -1.558112
H     -1.037319    0.629197   -1.999535
H      2.613441    1.291600   -1.824992
H      4.953467    1.054195   -1.265545
H      6.972595    1.280253    0.149645
H      8.010643   -0.125564    0.595144
H      7.093419   -0.160725   -0.957275
H      3.953146   -1.548981    2.013955
