22
Lipophilicity 150 2.0
N      3.793835    1.436674    0.024263
C      2.851622    0.370882   -0.067726
N      3.282972   -0.905284   -0.242706
C      2.399842   -1.931630   -0.336496
C      1.030106   -1.684495   -0.251246
C      0.592317   -0.363347   -0.061438
N      1.520240    0.630643    0.018430
C     -0.850671   -0.021818    0.033839
C     -1.793482   -0.943760    0.532342
C     -3.145517   -0.597488    0.620115
C     -3.572871    0.669689    0.218995
C     -2.648194    1.596277   -0.266191
C     -1.294871    1.256507   -0.355476
H      4.817964    1.244165   -0.041480
H      3.468301    2.419716    0.158069
H      2.761429   -2.940480   -0.484361
H      0.335906   -2.507251   -0.356648
H     -1.489526   -1.922607    0.877913
H     -3.861974   -1.311141    1.006153
H     -4.619835    0.935216    0.288669
H     -2.979996    2.579456   -0.574169
H     -0.597596    1.990074   -0.740850
