80
Lipophilicity 847 2.4000000953674316
C      1.665364    0.694890   -2.765096
C      1.985274    1.114584   -1.317832
C      1.255114    2.402460   -0.929332
N      1.719149    0.042287   -0.320221
C      0.387707   -0.597116   -0.453967
C     -0.102664   -1.145811    0.894045
C     -0.297526   -0.035483    1.939859
N     -1.377447    0.870072    1.550911
C     -2.755481    0.483015    1.601882
O     -3.081850   -0.608548    2.143005
N     -3.764021    1.365672    1.088991
C     -5.090314    0.936983    0.739127
C     -5.330899   -0.350203    0.235231
C     -6.623705   -0.753795   -0.100954
C     -7.720088    0.129662    0.039989
C     -7.455287    1.439422    0.507124
C     -6.158354    1.835687    0.846213
C     -9.167423   -0.278720   -0.303773
C     -9.289608   -1.752479   -0.766437
C     -9.696587    0.615617   -1.445544
C    -10.060926   -0.099837    0.944018
C      2.826100   -0.945234   -0.242890
C      3.506453   -0.888219    1.137578
O      4.472275   -1.915361    1.213268
C      5.674743   -1.363685    1.696263
C      5.419091    0.065655    2.187515
O      5.163035    0.038245    3.572205
C      4.171426    0.457862    1.423073
O      3.322262    1.283334    2.171459
N      6.708086   -1.485905    0.652462
C      7.317253   -2.661100    0.346109
C      8.103667   -2.543587   -0.795208
C      7.951484   -1.238810   -1.201684
C      8.478216   -0.523910   -2.276208
N      9.364441   -1.122771   -3.224449
N      8.127195    0.789645   -2.398700
C      7.275854    1.387376   -1.505846
N      6.758602    0.674275   -0.460886
C      7.102590   -0.629646   -0.321002
H      2.061330    1.454319   -3.470865
H      0.572198    0.615553   -2.923718
H      2.135914   -0.276780   -3.001353
H      3.067370    1.380975   -1.298314
H      1.516656    2.677779    0.114849
H      1.571625    3.231676   -1.602265
H      0.158338    2.291927   -1.005721
H      0.421845   -1.422683   -1.198589
H     -0.375056    0.121078   -0.819415
H      0.623120   -1.891392    1.283106
H     -1.059657   -1.688933    0.736433
H     -0.521855   -0.485563    2.930219
H      0.644226    0.541535    2.054840
H     -1.135962    1.822970    1.209960
H     -3.531066    2.381665    1.024532
H     -4.517183   -1.046298    0.087638
H     -6.742585   -1.761506   -0.472042
H     -8.253215    2.162778    0.620603
H     -5.988881    2.842228    1.211375
H     -8.705473   -1.927366   -1.698768
H    -10.348094   -2.010728   -0.991110
H     -8.937670   -2.448316    0.025154
H    -10.730042    0.322846   -1.732813
H     -9.045812    0.520196   -2.339333
H     -9.730348    1.684720   -1.146887
H    -10.135982    0.965205    1.239443
H    -11.093162   -0.463154    0.744137
H     -9.647082   -0.677524    1.798669
H      3.598465   -0.789342   -1.031917
H      2.460621   -1.987515   -0.400115
H      2.748639   -1.097829    1.924176
H      6.008919   -1.976896    2.566874
H      6.275271    0.743902    1.976735
H      5.352542    0.950049    3.921763
H      4.453379    0.969301    0.481694
H      3.756403    2.172738    2.220639
H      7.174324   -3.584859    0.900276
H      8.690314   -3.324766   -1.268081
H      9.619086   -2.136228   -3.169034
H      9.790772   -0.532749   -3.976996
H      7.014566    2.433820   -1.626080
