45
Lipophilicity 1413 1.940000057220459
N      3.344443   -0.431481    1.988610
C      3.004658    0.005044    0.667968
C      1.732926    0.041640    0.121017
C      1.913922    0.626210   -1.122172
N      3.219401    0.910341   -1.303716
N      3.879008    0.524832   -0.221583
C      5.303328    0.654797   -0.087353
C      6.080852   -0.408487    0.403502
C      7.469745   -0.279531    0.502406
C      8.094044    0.904533    0.099850
F      9.440925    1.027301    0.194750
C      7.330032    1.958300   -0.409729
C      5.940983    1.832124   -0.510450
C      0.444411   -0.321974    0.749574
O      0.337842   -0.268917    2.004360
C     -0.737039   -0.712391   -0.056738
C     -0.588432   -1.398727   -1.274735
C     -1.711112   -1.772198   -2.016483
C     -2.993313   -1.475293   -1.550173
C     -3.162143   -0.802792   -0.325813
O     -4.427178   -0.485194    0.189491
C     -5.661588   -0.780730   -0.460123
C     -6.840261   -0.274414    0.386985
O     -8.046815   -0.809400   -0.096463
C     -6.922098    1.262588    0.423611
O     -5.837022    1.803312    1.130288
C     -2.032279   -0.431934    0.413640
H      2.661599   -0.958372    2.574550
H      4.274785   -0.210649    2.405074
H      1.139513    0.863224   -1.839501
H      5.615000   -1.342312    0.690761
H      8.061946   -1.101347    0.883923
H      7.813238    2.872760   -0.728968
H      5.359606    2.654655   -0.907680
H      0.393338   -1.664033   -1.645448
H     -1.586872   -2.299709   -2.953498
H     -3.844405   -1.777726   -2.144690
H     -5.752464   -1.882250   -0.581735
H     -5.684909   -0.304103   -1.464727
H     -6.705657   -0.642571    1.427677
H     -8.166228   -0.485813   -1.028158
H     -7.855326    1.557478    0.949000
H     -6.980001    1.677477   -0.610220
H     -5.150918    2.056626    0.459104
H     -2.169484    0.089104    1.353619
