35
Lipophilicity 402 1.3700000047683716
C      1.214680    0.495512    0.640633
N      0.029520   -0.047630   -0.036361
C     -1.055674    0.849489   -0.455031
C     -2.241189    0.698305    0.460055
C     -2.181532    1.188548    1.775242
C     -3.271776    1.030124    2.636350
C     -4.426732    0.380613    2.192017
C     -4.493120   -0.111919    0.885780
C     -3.404752    0.043494    0.021671
C     -0.068934   -1.462119   -0.289724
N      0.821606   -2.374463    0.148310
N      0.360530   -3.531822   -0.297266
N     -0.757059   -3.323588   -0.972755
N     -1.062899   -2.038125   -0.992614
C      2.387850    0.522302   -0.301976
C      2.422719    1.451631   -1.354965
C      3.498946    1.464955   -2.247503
C      4.545191    0.550803   -2.097005
C      4.516630   -0.378692   -1.053775
C      3.442109   -0.395762   -0.159024
H      1.023661    1.529226    1.002124
H      1.438413   -0.109029    1.546813
H     -1.330891    0.636464   -1.511151
H     -0.721372    1.909624   -0.434264
H     -1.291558    1.691447    2.132517
H     -3.220855    1.410319    3.648516
H     -5.269680    0.258456    2.859814
H     -5.387469   -0.616032    0.542990
H     -3.470157   -0.346744   -0.986346
H     -1.321565   -4.073437   -1.428882
H      1.617130    2.163588   -1.484442
H      3.521483    2.184027   -3.056191
H      5.377411    0.562265   -2.788915
H      5.326551   -1.087556   -0.939450
H      3.432784   -1.124274    0.642232
