61
Lipophilicity 1124 2.0399999618530273
C     -4.216811    4.166713    0.380872
O     -4.061125    2.874560    0.958252
C     -3.000948    2.001474    0.672157
C     -1.977262    2.331375   -0.233532
C     -0.940594    1.430876   -0.481780
C     -0.903035    0.193386    0.174102
N      0.175821   -0.726125   -0.084681
C      1.395820   -0.686347    0.759149
C      2.309604    0.466355    0.388101
O      3.086666    0.945721    1.259621
N      2.396918    0.929640   -0.969500
C      3.251287    2.046856   -1.373932
C      4.505858    1.549173   -2.112514
C      5.406790    0.718681   -1.197698
O      4.144565    0.778363   -3.228999
C      1.038801   -0.719424    2.243178
C      1.023276   -1.958053    2.912893
C      0.639769   -2.038607    4.254067
C      0.256591   -0.887745    4.943396
C      0.253216    0.346784    4.292681
C      0.636573    0.438242    2.950938
F      0.587412    1.650812    2.343456
C      0.119554   -1.596886   -1.243975
O      1.156566   -2.218381   -1.602846
C     -1.123549   -1.785243   -2.033991
O     -2.315588   -1.393804   -1.642024
C     -3.200997   -1.715394   -2.556963
C     -2.575838   -2.352204   -3.607792
C     -1.237927   -2.397245   -3.275490
C     -0.150483   -2.998044   -4.109940
C     -1.933763   -0.158143    1.064941
O     -1.892380   -1.421608    1.675194
C     -2.819935   -1.876611    2.653798
C     -2.973244    0.758319    1.313831
H     -5.136509    4.636261    0.785762
H     -4.316424    4.082536   -0.721982
H     -3.347156    4.807463    0.638662
H     -1.974064    3.280373   -0.751885
H     -0.167747    1.698703   -1.188350
H      2.006024   -1.594238    0.561696
H      1.892268    0.415450   -1.724091
H      3.544878    2.663941   -0.497144
H      2.671338    2.709722   -2.051543
H      5.092387    2.436915   -2.445625
H      6.336576    0.443210   -1.739290
H      5.686350    1.303972   -0.295782
H      4.894015   -0.215137   -0.883139
H      3.803333    1.410185   -3.914689
H      1.297289   -2.867583    2.392851
H      0.631647   -2.996957    4.757001
H     -0.045259   -0.953560    5.980684
H     -0.056775    1.235148    4.827710
H     -4.259440   -1.505430   -2.481885
H     -3.041880   -2.734402   -4.506420
H      0.649414   -2.247794   -4.281403
H      0.273632   -3.882454   -3.590706
H     -0.550047   -3.320280   -5.094631
H     -2.804045   -1.201849    3.535780
H     -3.841403   -1.920500    2.220834
H     -2.528036   -2.895114    2.981822
H     -3.771974    0.513951    2.000792
