56
Lipophilicity 892 2.259999990463257
C     -6.844517   -0.589279   -1.200434
C     -6.465348    0.847444   -0.842728
N     -5.485154    0.876521    0.266394
C     -5.469987    2.209585    0.910763
C     -4.813068    2.148284    2.289668
C     -4.129694    0.464148   -0.183688
C     -3.695189   -0.781755    0.589845
N     -2.364384   -1.210770    0.165952
C     -1.166253   -0.568956    0.627361
O     -1.243108    0.469851    1.337797
C      0.165421   -1.093192    0.260664
C      0.552704   -2.423551    0.131341
C     -0.297888   -3.635257    0.354377
N      1.849118   -2.495924   -0.227988
C      2.315611   -1.235488   -0.290483
C      3.693408   -0.912317   -0.693586
C      4.538850   -0.207968    0.070972
C      4.362261    0.287990    1.445548
O      3.355507    0.096566    2.176960
N      5.532586    0.965661    1.893852
C      6.445989    0.868187    0.807427
C      7.745867    1.370520    0.773362
C      8.505374    1.173708   -0.392126
C      7.957887    0.483778   -1.493628
F      8.701511    0.302364   -2.612616
C      6.645402   -0.016644   -1.438419
C      5.907488    0.187928   -0.269807
C      1.296237   -0.334072   -0.011756
C      1.369124    1.163815   -0.070911
H     -7.662375   -0.582190   -1.951549
H     -7.197033   -1.126121   -0.294201
H     -5.980605   -1.133877   -1.633958
H     -7.409752    1.355249   -0.545599
H     -6.072138    1.376971   -1.739858
H     -4.950866    2.958118    0.270662
H     -6.507968    2.574881    1.075289
H     -4.930897    3.126793    2.801343
H     -3.728362    1.931512    2.205126
H     -5.296631    1.362224    2.907787
H     -3.374929    1.268194   -0.037196
H     -4.097015    0.228846   -1.271338
H     -4.419896   -1.601226    0.393772
H     -3.698108   -0.584246    1.683439
H     -2.299178   -1.993308   -0.521339
H     -1.032773   -3.449796    1.165337
H      0.338840   -4.494072    0.653682
H     -0.829381   -3.896269   -0.583852
H      2.396801   -3.367906   -0.404738
H      4.038501   -1.305873   -1.640244
H      5.699868    1.394703    2.830959
H      8.159787    1.898922    1.622281
H      9.517021    1.554894   -0.443615
H      6.223454   -0.544639   -2.283134
H      1.341008    1.579967    0.957173
H      2.300654    1.498405   -0.571863
H      0.506220    1.558666   -0.646930
