60
Lipophilicity 1224 1.1100000143051147
C      1.113420   -0.720297    1.443185
C      1.363930   -0.408539   -0.036626
C      2.153611   -1.474347   -0.793086
C      0.672963   -1.295934   -1.071026
C      1.648565    1.018085   -0.451955
C      0.745721    1.941053   -0.973692
C      1.521645    3.029668   -1.328599
N      2.809848    2.786588   -1.024839
N      2.879408    1.580578   -0.485713
C      4.116284    0.988477   -0.073240
C      4.328990    0.652020    1.267991
C      5.539019    0.077860    1.667812
C      6.559468   -0.157629    0.730028
C      6.347018    0.201949   -0.612042
C      5.136602    0.777483   -1.007005
C      7.840511   -0.769452    1.143738
O      8.057033   -1.037732    2.357289
O      8.821210   -1.053094    0.194240
C     -0.706718    1.818632   -1.218324
O     -1.250929    2.597528   -2.047392
N     -1.504258    0.853985   -0.518930
C     -2.876242    0.525827   -0.928529
C     -3.920752    1.273474   -0.059337
C     -3.878471    0.766942    1.402969
C     -4.177585   -0.749055    1.441035
C     -5.578638   -1.014094    0.845807
C     -5.623122   -0.513255   -0.614298
C     -4.557496   -1.267495   -1.447298
C     -3.151453   -1.001394   -0.857821
C     -3.123202   -1.508377    0.607134
C     -5.329402    1.004988   -0.639491
H      0.421618   -1.578226    1.568335
H      0.671500    0.163515    1.949778
H      2.067321   -0.972910    1.946851
H      2.385896   -2.403442   -0.229932
H      2.796324   -1.119257   -1.626241
H      0.042866   -2.119079   -0.672218
H      0.460375   -0.823364   -2.055396
H      1.170139    3.942259   -1.790797
H      3.564648    0.853504    2.006172
H      5.675794   -0.176235    2.710868
H      7.115644    0.041810   -1.357149
H      4.985360    1.045241   -2.043636
H      9.701292   -1.473166    0.466527
H     -1.144657    0.498456    0.390435
H     -3.010340    0.837948   -1.989646
H     -3.716075    2.366087   -0.080956
H     -2.887231    0.973683    1.858705
H     -4.629821    1.315188    2.013003
H     -4.149494   -1.106268    2.493801
H     -5.804827   -2.102697    0.879660
H     -6.353315   -0.496498    1.452116
H     -6.631707   -0.704010   -1.041198
H     -4.597040   -0.932050   -2.506746
H     -4.772892   -2.357440   -1.441710
H     -2.392314   -1.549136   -1.457935
H     -3.341633   -2.599719    0.630796
H     -2.117058   -1.383706    1.057481
H     -5.392728    1.387983   -1.679720
H     -6.094624    1.547086   -0.043383
