56
Lipophilicity 2065 3.6700000762939453
C     -9.563092    0.473644    1.189291
O     -8.221643    0.779084    1.556533
C     -7.084277    0.261390    0.916507
C     -7.178387   -0.628413   -0.168733
C     -6.025293   -1.120204   -0.781859
C     -4.754925   -0.728282   -0.333228
C     -4.660039    0.148749    0.761504
C     -5.820331    0.648782    1.386008
O     -5.758588    1.529441    2.478128
C     -4.552176    2.012559    3.060356
C     -3.544089   -1.265486   -0.999400
O     -3.588389   -2.421220   -1.502913
N     -2.328826   -0.495407   -1.071090
C     -1.146592   -0.927139   -1.766102
C     -1.223586   -1.586109   -3.005269
C     -0.057899   -1.981018   -3.665626
C      1.193446   -1.701938   -3.111461
C      1.289447   -0.999667   -1.897668
N      2.563096   -0.711850   -1.295966
C      3.731002   -0.314520   -2.039680
O      3.652991   -0.131065   -3.285253
C      5.035133   -0.106522   -1.365794
C      6.225336   -0.354724   -2.066811
C      7.461135   -0.161550   -1.450938
C      7.527746    0.289219   -0.132153
C      6.351864    0.562967    0.594459
C      5.107514    0.364357   -0.041371
N      6.419453    1.043598    1.962110
C      5.289596    0.847774    2.878691
C      7.620771    1.729469    2.453141
C      0.114061   -0.627980   -1.227437
H    -10.256087    1.020476    1.860907
H     -9.755086    0.793899    0.143449
H     -9.749827   -0.615755    1.296716
H     -8.139861   -0.946357   -0.548009
H     -6.127310   -1.799487   -1.619500
H     -3.688702    0.418333    1.148117
H     -4.802311    2.696234    3.897213
H     -3.962397    2.575187    2.306089
H     -3.955219    1.165844    3.460211
H     -2.267085    0.408402   -0.552972
H     -2.179656   -1.779547   -3.472755
H     -0.124525   -2.505269   -4.610294
H      2.080496   -2.051498   -3.622316
H      2.611538   -0.750124   -0.254119
H      6.199193   -0.711873   -3.089095
H      8.372937   -0.366132   -1.997359
H      8.503695    0.415339    0.315471
H      4.197256    0.617753    0.480740
H      5.583296    1.036521    3.933030
H      4.928265   -0.200710    2.815502
H      4.465887    1.544245    2.616996
H      7.936062    2.507217    1.725507
H      7.432498    2.236474    3.423213
H      8.441728    0.996441    2.597193
H      0.180757   -0.103294   -0.281915
