47
Lipophilicity 569 2.0
N      4.611151   -0.284735    1.089339
C      3.778482    0.576843    0.246258
C      3.962982    2.060972    0.602002
C      4.665269    2.299127   -0.726265
C      4.442406    0.845072   -1.114019
C      2.333091    0.093930    0.185013
C      1.941880   -0.872760   -0.760142
C      0.631898   -1.358348   -0.781208
C     -0.304990   -0.910776    0.161148
C      0.096045    0.005088    1.144811
C      1.405260    0.491616    1.165452
C     -1.701275   -1.407045    0.124226
C     -2.821714   -0.529980    0.048210
C     -4.131282   -1.064333    0.088377
C     -4.322046   -2.447120    0.183849
N     -3.227502   -3.242303    0.237743
C     -3.142248   -4.574703    0.346032
C     -1.796467   -4.892885    0.389466
N     -1.048625   -3.766223    0.310063
C     -1.967433   -2.781476    0.212757
C     -2.657667    0.935380   -0.107770
C     -1.877655    1.460444   -1.153436
C     -1.717407    2.842609   -1.288184
C     -2.341109    3.710988   -0.388619
C     -3.129021    3.198603    0.645487
C     -3.290658    1.816750    0.785277
H      4.571521   -1.259376    0.711172
H      4.198086   -0.310034    2.050194
H      3.017522    2.643261    0.659148
H      4.635843    2.231943    1.471237
H      5.742386    2.544866   -0.599442
H      4.113709    3.007773   -1.382435
H      3.756517    0.769200   -1.985752
H      5.399030    0.296433   -1.260388
H      2.650622   -1.257847   -1.481845
H      0.346425   -2.079069   -1.537624
H     -0.603555    0.335610    1.902787
H      1.693981    1.173396    1.954929
H     -4.995218   -0.413900    0.027250
H     -5.319156   -2.868732    0.212111
H     -3.980580   -5.257601    0.397714
H     -1.384264   -5.888814    0.479377
H     -1.397294    0.800764   -1.865389
H     -1.111565    3.240555   -2.091920
H     -2.216162    4.780837   -0.494473
H     -3.612907    3.872378    1.340688
H     -3.896303    1.433620    1.597363
