26
Lipophilicity 997 2.0799999237060547
C      4.950025   -0.559314    0.418051
O      4.033108    0.496047    0.688118
C      2.645751    0.407140    0.500332
C      1.860510    1.523106    0.805702
C      0.473352    1.485997    0.637796
C     -0.158454    0.320680    0.163597
C      0.635245   -0.796195   -0.153728
C      2.022280   -0.757048    0.016051
C     -1.630453    0.260739   -0.030457
C     -2.512133    1.030236    0.746480
C     -3.882524    0.920243    0.513160
N     -4.343432    0.077044   -0.445321
C     -3.485021   -0.670289   -1.186881
N     -3.987783   -1.553763   -2.186301
N     -2.145920   -0.575558   -0.974037
H      4.714107   -1.441242    1.050337
H      4.907369   -0.836562   -0.656447
H      5.977744   -0.216410    0.655884
H      2.329616    2.428446    1.169943
H     -0.095229    2.379541    0.857616
H      0.181573   -1.707864   -0.522575
H      2.599564   -1.637279   -0.231838
H     -2.159467    1.683963    1.532768
H     -4.581584    1.501231    1.099805
H     -5.015300   -1.631645   -2.354721
H     -3.332946   -2.131243   -2.758973
