49
Lipophilicity 1870 1.100000023841858
C     -3.835810    2.829056   -0.640114
C     -4.259757    1.462926   -0.201203
N     -5.421289    0.882834   -0.585556
C     -5.434228   -0.331610   -0.009630
C     -6.423817   -1.307423   -0.121457
C     -6.228736   -2.523307    0.558684
C     -5.061362   -2.735297    1.325024
C     -4.078588   -1.733277    1.419060
C     -4.300616   -0.536765    0.736083
C     -3.532956    0.608030    0.631005
C     -2.167823    0.838486    1.219615
C     -1.084428    0.114162    0.416421
N     -1.006263    0.658923   -0.946184
C     -0.190283   -0.186021   -1.830779
C      1.272005   -0.156527   -1.453901
C      1.838299   -1.208570   -0.719555
C      3.185351   -1.167885   -0.347883
C      3.988716   -0.062971   -0.694719
C      5.426056    0.026495   -0.334896
C      5.983046   -0.653861    0.678142
C      7.414330   -0.559860    1.033324
O      7.909084   -1.454435    1.769831
N      8.244944    0.523794    0.595429
O      9.577619    0.501682    0.837761
C      3.417279    0.981662   -1.439898
C      2.070148    0.939745   -1.809189
H     -3.647539    3.467061    0.248223
H     -4.630363    3.301284   -1.254996
H     -2.910013    2.758108   -1.246858
H     -6.153833    1.289897   -1.209201
H     -7.313368   -1.137293   -0.714065
H     -6.977486   -3.301887    0.492753
H     -4.921365   -3.675205    1.842826
H     -3.181667   -1.890469    2.003797
H     -1.942032    1.925338    1.258404
H     -2.157103    0.462310    2.264939
H     -1.318898   -0.973550    0.392073
H     -0.110226    0.247512    0.937183
H     -0.588050    1.618418   -0.904627
H     -0.579536   -1.228427   -1.834151
H     -0.301183    0.183731   -2.872953
H      1.236818   -2.063486   -0.436013
H      3.590884   -2.013901    0.188564
H      6.033377    0.697316   -0.926490
H      5.383100   -1.325296    1.276407
H      7.842272    1.359356    0.118293
H      9.683997    0.946440    1.717385
H      4.013070    1.839515   -1.727744
H      1.648224    1.763240   -2.372124
