23
Lipophilicity 1368 1.8300000429153442
C      3.950113    0.985173    0.253929
C      3.400198   -0.215499   -0.507231
O      1.976248   -0.162974   -0.569171
C      1.143029   -0.475082    0.512953
O      1.641563   -0.878259    1.600164
C     -0.323737   -0.337841    0.375332
C     -1.178665   -0.652229    1.447599
C     -2.563898   -0.519741    1.311740
C     -3.115893   -0.071651    0.104699
N     -4.532860    0.063489   -0.032977
C     -2.269764    0.243231   -0.966472
C     -0.884152    0.111615   -0.833306
H      5.060041    0.957383    0.243263
H      3.603511    0.967778    1.308187
H      3.608821    1.926562   -0.226295
H      3.799712   -0.194040   -1.542981
H      3.733197   -1.162256   -0.028964
H     -0.778207   -1.000485    2.391491
H     -3.206786   -0.766320    2.147444
H     -4.953593    0.396835   -0.928939
H     -5.171645   -0.168809    0.760038
H     -2.683697    0.590819   -1.904743
H     -0.253534    0.362301   -1.677001
