28
Lipophilicity 803 1.5299999713897705
O      4.605155   -0.792609    1.972436
N      3.556120   -0.224137    1.331512
C      3.768751    0.623552    0.197875
O      4.941829    0.849087   -0.203668
C      2.607473    1.265970   -0.509397
C      1.866542    2.281514    0.382752
O      0.550672    1.762829    0.444689
C      0.481245    0.593473   -0.287827
N      1.599685    0.266230   -0.838707
C     -0.752644   -0.208473   -0.421166
C     -0.760760   -1.395179   -1.172653
C     -1.931043   -2.146345   -1.291165
C     -3.105576   -1.725471   -0.663641
F     -4.229633   -2.475208   -0.794927
C     -3.120639   -0.540174    0.094000
C     -1.935751    0.212708    0.209539
C     -4.399399   -0.100118    0.766624
F     -4.813116   -1.076841    1.654247
F     -4.233538    1.084469    1.463547
F     -5.382096    0.087228   -0.188510
H      4.724701   -1.672749    1.532338
H      2.589527   -0.391316    1.690574
H      2.950141    1.758606   -1.446318
H      1.851027    3.287188   -0.089153
H      2.290831    2.351797    1.408041
H      0.136775   -1.743418   -1.668420
H     -1.926857   -3.059561   -1.872424
H     -1.929424    1.126949    0.789268
