81
Lipophilicity 1703 3.190000057220459
C     -6.412334   -1.929164    3.886501
O     -6.050793   -1.593118    2.553314
C     -4.731197   -1.412727    2.107869
C     -3.626591   -1.582170    2.961355
C     -2.327119   -1.388252    2.484418
N     -1.277146   -1.519792    3.334519
C     -0.007076   -1.317815    2.910963
N      0.235222   -0.997167    1.615991
C     -0.768363   -0.860867    0.706983
N     -0.447542   -0.573762   -0.668222
C      0.546763    0.391302   -1.059274
C      1.854930    0.314779   -0.550777
C      2.829504    1.249373   -0.932466
N      4.161390    1.188169   -0.399678
C      4.445064    0.860770    0.970627
O      3.520730    0.894926    1.828822
C      5.824222    0.535682    1.398916
C      6.222447    0.760005    2.724429
C      7.525336    0.456279    3.113307
N      8.401722   -0.057478    2.212729
C      8.060644   -0.300581    0.915470
C      6.748333   -0.007722    0.492310
N      9.043466   -0.862666    0.012998
C     10.102412   -1.728542    0.557756
C     11.330766   -1.711940   -0.355137
O     10.964474   -1.996259   -1.688740
C     10.167453   -0.941661   -2.190251
C      8.831136   -0.855202   -1.443671
C      2.510058    2.225396   -1.882825
C      1.223375    2.297362   -2.415069
C      0.229490    1.398213   -2.001002
C     -1.151293    1.506276   -2.587461
C     -2.106081   -1.040587    1.133259
C     -3.215820   -0.852036    0.286859
C     -4.525787   -1.037667    0.771690
O     -5.654207   -0.848067   -0.040128
C     -5.626116   -0.303627   -1.357269
C     -7.053677   -0.166217   -1.888547
N     -7.941572    0.476730   -0.896477
C     -9.353986    0.303695   -1.282427
C    -10.275650    0.918745   -0.208210
O     -9.569411    1.725899    0.719280
C     -8.753736    2.647301    0.025337
C     -7.631681    1.915552   -0.736932
H     -5.977547   -2.910663    4.158806
H     -7.516961   -1.997281    3.952880
H     -6.060434   -1.144565    4.588134
H     -3.767797   -1.860915    3.996995
H      0.816148   -1.422672    3.602810
H     -1.052567   -0.971592   -1.418608
H      2.134055   -0.497372    0.105428
H      4.943665    1.542175   -0.994943
H      5.535278    1.176508    3.450151
H      7.843161    0.633624    4.132664
H      6.431518   -0.234471   -0.516134
H      9.714969   -2.769747    0.638737
H     10.419190   -1.391310    1.567340
H     12.040466   -2.492805   -0.009281
H     11.860093   -0.734252   -0.279531
H     10.707414    0.031921   -2.141284
H      9.961046   -1.136189   -3.263729
H      8.192119   -1.720773   -1.724936
H      8.330640    0.085515   -1.760051
H      3.258608    2.937872   -2.205433
H      0.999715    3.066343   -3.144801
H     -1.911114    1.422220   -1.787156
H     -1.302609    0.696535   -3.329395
H     -1.305750    2.480154   -3.093024
H     -3.075545   -0.545864   -0.738340
H     -5.131414    0.691561   -1.348027
H     -5.053613   -0.977908   -2.029560
H     -7.415983   -1.194498   -2.109330
H     -7.047138    0.397828   -2.848121
H     -9.596042   -0.778449   -1.382866
H     -9.548887    0.792022   -2.265562
H    -11.089684    1.507373   -0.686294
H    -10.763685    0.098004    0.359172
H     -8.304592    3.350138    0.760756
H     -9.363586    3.263050   -0.675621
H     -7.484506    2.409221   -1.725072
H     -6.690392    2.017894   -0.155781
