56
Lipophilicity 1629 1.7000000476837158
C     -6.936993   -2.057749    0.981484
C     -6.010801   -1.974176   -0.229621
C     -4.954050   -0.921745   -0.031514
C     -3.594053   -1.248720   -0.086733
C     -2.625134   -0.244754    0.086470
O     -1.250234   -0.530576    0.054263
C     -0.690225   -1.801970   -0.260878
C      0.806660   -1.697483   -0.240051
C      1.552744   -2.294968    0.787901
C      2.944507   -2.168572    0.813062
C      3.605668   -1.426378   -0.176878
C      2.860277   -0.829570   -1.205505
C      1.469269   -0.960285   -1.233929
C      5.078411   -1.297569   -0.151187
C      5.846840   -2.465783   -0.297862
C      7.238806   -2.397521   -0.359861
C      7.881506   -1.163470   -0.277555
C      7.136004    0.006556   -0.120756
C      5.731684   -0.040027   -0.039665
C      4.995340    1.225332    0.202388
N      3.783402    1.313563    0.788748
N      3.519044    2.608585    0.839244
N      4.530230    3.275316    0.312987
N      5.477444    2.448336   -0.092856
C     -3.038400    1.082888    0.299779
C     -2.003763    2.159193    0.555649
C     -2.566200    3.573181    0.382793
C     -3.887823    3.714630    1.136765
C     -4.938097    2.772266    0.543040
C     -4.422126    1.366649    0.368649
N     -5.325019    0.367897    0.182290
H     -6.351808   -2.282233    1.899704
H     -7.483335   -1.100448    1.120661
H     -7.680687   -2.867293    0.824554
H     -5.548578   -2.974009   -0.388949
H     -6.606420   -1.726776   -1.135215
H     -3.300572   -2.275958   -0.256313
H     -1.019593   -2.115224   -1.276148
H     -1.040363   -2.559251    0.474426
H      1.059286   -2.859745    1.569038
H      3.506398   -2.637343    1.611398
H      3.357102   -0.261444   -1.982698
H      0.907036   -0.485311   -2.029209
H      5.363440   -3.430867   -0.386908
H      7.819749   -3.302792   -0.480323
H      8.961883   -1.113877   -0.327826
H      7.662762    0.949088   -0.036251
H      4.575435    4.315061    0.230677
H     -1.143969    2.037880   -0.138586
H     -1.624705    2.042681    1.593975
H     -1.833394    4.311514    0.772384
H     -2.725673    3.783609   -0.697984
H     -3.735557    3.479160    2.212540
H     -4.248206    4.762521    1.061663
H     -5.829955    2.761529    1.206236
H     -5.255195    3.156454   -0.450750
