32
Lipophilicity 900 4.400000095367432
O      2.334180    1.006810    1.403572
C      2.988521    0.642669    0.227674
C      4.327100    1.013528    0.029143
C      4.973487    0.703535   -1.170073
C      4.285828    0.027765   -2.180177
C      2.954661   -0.351326   -1.987642
C      2.303794   -0.070024   -0.779761
O      0.970045   -0.473301   -0.631683
C      0.439969   -1.043861    0.532247
O      1.206224   -1.546115    1.400119
C     -1.025929   -1.161490    0.694544
C     -1.540697   -2.378707    1.173262
C     -2.915784   -2.582422    1.278007
C     -3.805320   -1.575450    0.911828
C     -3.325438   -0.339888    0.457090
C     -4.230338    0.677699    0.115383
C     -3.763211    1.923726   -0.302395
C     -2.392800    2.170198   -0.370613
C     -1.477966    1.168102   -0.038082
C     -1.924704   -0.112458    0.356866
H      2.804977    1.527000    2.134657
H      4.862723    1.554722    0.798704
H      6.004655    0.996201   -1.320258
H      4.784598   -0.203482   -3.112513
H      2.429679   -0.878257   -2.774338
H     -0.873705   -3.189250    1.441712
H     -3.294157   -3.531394    1.635820
H     -4.870188   -1.758391    0.995574
H     -5.299294    0.511625    0.179741
H     -4.465938    2.705529   -0.560378
H     -2.036473    3.146086   -0.674710
H     -0.428500    1.420619   -0.068846
