56
Lipophilicity 740 3.799999952316284
C      6.225362   -1.365586   -2.550628
O      6.416592   -0.535807   -1.425000
C      5.265576   -0.547577   -0.602145
C      4.347676    0.627145   -0.952089
O      3.269308    0.713210   -0.023415
C      2.176926   -0.161396   -0.023393
O      2.064967   -1.024746   -0.936488
C      1.107039   -0.042054    1.004951
C      1.341881    0.422397    2.252595
C      2.718532    0.806330    2.731702
N      0.253749    0.546464    3.177251
C     -1.035740   -0.033654    2.934958
C     -1.324374   -0.532737    1.706687
C     -0.307066   -0.406155    0.578637
C     -0.800769    0.596781   -0.447479
C     -1.059697    0.189740   -1.766383
C     -1.521434    1.108047   -2.709875
C     -1.725080    2.442484   -2.352156
C     -1.467133    2.875831   -1.040618
C     -1.003975    1.943758   -0.093360
N     -1.675127    4.252864   -0.675607
O     -1.444775    4.645809    0.486967
O     -2.131345    5.161113   -1.603455
C     -2.637722   -1.149415    1.343803
O     -3.616921   -1.142074    2.137208
O     -2.783461   -1.727554    0.077147
C     -4.035069   -2.137990   -0.470734
C     -3.771715   -3.037559   -1.676261
C     -4.850534   -0.911656   -0.888211
C     -2.009205   -0.068079    4.085302
H      6.148118   -2.433647   -2.247194
H      7.107848   -1.269104   -3.215485
H      5.328008   -1.064395   -3.135454
H      4.704357   -1.510755   -0.638963
H      5.599603   -0.422361    0.449915
H      4.932801    1.569574   -0.896671
H      3.953042    0.529157   -1.986240
H      3.458937    0.022634    2.464765
H      2.736160    0.909716    3.836950
H      3.013066    1.782035    2.291843
H      0.432374    1.008969    4.096747
H     -0.238773   -1.414684    0.112654
H     -0.909724   -0.840379   -2.064791
H     -1.722877    0.784162   -3.722714
H     -2.083572    3.135191   -3.102469
H     -0.801613    2.261013    0.921725
H     -4.605169   -2.724367    0.283969
H     -3.182685   -3.924636   -1.359422
H     -3.197365   -2.487850   -2.453578
H     -4.730920   -3.389391   -2.111966
H     -4.283643   -0.302539   -1.625837
H     -5.071856   -0.279338   -0.003350
H     -5.815020   -1.227070   -1.340026
H     -2.317420   -1.112952    4.297593
H     -2.893570    0.562084    3.856850
H     -1.546576    0.331002    5.011237
