39
Lipophilicity 846 3.7100000381469727
C      5.529629   -3.350831    1.566851
C      5.284389   -2.132559    0.735272
C      6.314502   -1.582852   -0.037508
C      6.056819   -0.452575   -0.814133
C      4.781930    0.115991   -0.814657
C      3.770492   -0.454818   -0.029163
N      2.449942    0.113846   -0.036140
C      1.393257   -0.307293    0.845240
O      1.666940   -0.967329    1.884985
C     -0.017917    0.057587    0.569735
C     -0.953078    0.090431    1.616458
C     -2.284699    0.428541    1.369283
C     -2.716080    0.739708    0.070114
C     -4.136968    1.107848   -0.145998
C     -4.474712    2.319295   -0.774831
C     -5.816055    2.666148   -0.963659
C     -6.829592    1.812204   -0.521004
C     -6.503601    0.611295    0.114630
C     -5.163580    0.260319    0.305689
C     -1.785673    0.684897   -0.992982
C     -0.449582    0.345188   -0.736791
C     -2.186524    0.918846   -2.360522
N     -2.507578    1.105946   -3.456525
N      4.048437   -1.562236    0.715459
H      6.379037   -3.170130    2.258860
H      4.629142   -3.601068    2.167120
H      5.770632   -4.210900    0.907474
H      7.302816   -2.025823   -0.038559
H      6.844040   -0.018372   -1.416823
H      4.584155    0.991611   -1.420018
H      2.261844    0.903545   -0.693833
H     -0.651843   -0.132925    2.632514
H     -2.980061    0.461744    2.199407
H     -3.700852    2.999601   -1.108332
H     -6.069714    3.599468   -1.449493
H     -7.867326    2.082614   -0.667405
H     -7.289519   -0.048158    0.459487
H     -4.926260   -0.675759    0.796226
H      0.243212    0.276957   -1.566801
