19
Lipophilicity 329 0.30000001192092896
N     -2.766611   -0.022720    1.143496
C     -2.006916    1.030716    0.551282
O     -1.941538    2.151616    1.122907
C     -1.250169    0.797807   -0.720235
C      0.094997    0.196877   -0.419413
C      1.191109    1.025660   -0.125795
C      2.434497    0.465540    0.183888
C      2.590088   -0.923113    0.211355
C      1.501593   -1.754262   -0.067401
C      0.256417   -1.198465   -0.377667
H     -2.814893   -0.963235    0.692652
H     -3.280370    0.136827    2.038338
H     -1.835078    0.124825   -1.384133
H     -1.125742    1.759315   -1.264980
H      1.081606    2.103114   -0.135529
H      3.276716    1.108145    0.405715
H      3.552806   -1.354998    0.452407
H      1.621914   -2.829559   -0.040187
H     -0.580428   -1.854090   -0.584228
