42
Lipophilicity 1836 2.0999999046325684
C      7.417572    2.570899    0.508711
C      6.260630    1.816888   -0.061134
O      6.161721    1.690347   -1.311471
N      5.228340    1.327947    0.809086
C      4.174077    0.442581    0.393053
C      4.391505   -0.553135   -0.575438
C      3.359145   -1.422115   -0.935836
C      2.103788   -1.310701   -0.334309
C      1.867972   -0.319851    0.634280
N      0.595217   -0.205063    1.293053
C     -0.668226   -0.417791    0.647433
N     -1.804308   -0.497135    1.405856
C     -3.026433   -0.670120    0.827115
N     -4.194861   -0.752209    1.660713
C     -5.559497   -0.859720    1.151306
C     -6.132374    0.462681    0.669523
C     -6.587056   -0.124353    1.995911
N     -3.077680   -0.757181   -0.530150
N     -4.129994   -0.938669   -1.313414
C     -3.674328   -0.961086   -2.590423
C     -2.296034   -0.789916   -2.596426
C     -1.416447   -0.760573   -3.732769
N     -0.707691   -0.736971   -4.647144
C     -1.970350   -0.668122   -1.270625
N     -0.750737   -0.493209   -0.713419
C      2.916872    0.532856    1.010481
H      7.735543    2.108500    1.466625
H      7.118037    3.623549    0.692435
H      8.275434    2.553221   -0.196547
H      5.197152    1.705733    1.783354
H      5.364894   -0.683944   -1.028595
H      3.537794   -2.196184   -1.671081
H      1.331162   -2.018931   -0.602394
H      0.580566    0.135921    2.281072
H     -4.052454   -0.787908    2.695609
H     -5.880615   -1.791140    0.638655
H     -5.455788    1.338921    0.766021
H     -6.874645    0.365150   -0.150425
H     -7.606280   -0.563866    1.966517
H     -6.193527    0.416560    2.883112
H     -4.305684   -1.096047   -3.458611
H      2.747591    1.284183    1.772351
