74
Lipophilicity 231 0.9100000262260437
C     -4.452754    3.277514   -3.033032
O     -5.368426    2.586408   -2.189387
C     -4.996897    1.692488   -1.170757
C     -3.648640    1.396421   -0.897050
C     -3.299708    0.497628    0.124806
C     -4.321871   -0.083706    0.896734
C     -5.673352    0.197879    0.631624
O     -6.714173   -0.377424    1.377395
C     -6.526894   -1.286020    2.457942
C     -6.005169    1.082610   -0.403238
O     -7.351800    1.351676   -0.653849
C     -1.824619    0.241679    0.426728
C     -1.288888    1.162510    1.578141
C      0.086990    0.729105    2.172641
C     -0.188939    0.274819    3.629190
O     -1.510739    0.679245    3.914764
C     -2.138150    1.189909    2.801807
O     -3.265800    1.745622    2.867706
C      0.824399   -0.351227    1.359620
O      1.235372    0.220979    0.128829
C      2.458905   -0.323273   -0.334037
O      3.515652    0.328879    0.358820
C      4.725437    0.257617   -0.354214
C      5.885920    0.695070    0.540997
O      7.071207    0.827271   -0.218805
C      6.874807    1.786629   -1.245482
C      8.188811    1.978124   -1.990664
O      5.892964    1.340964   -2.168539
C      4.639746    1.236911   -1.517919
C      3.558944    0.769949   -2.513681
O      2.951035    1.882931   -3.125075
C      2.478723   -0.187866   -1.902405
O      2.574989   -1.463621   -2.490572
C     -0.114946   -1.499598    1.084165
C      0.326296   -2.830989    1.234904
C     -0.543070   -3.848951    0.867986
O     -0.338736   -5.213514    0.924085
C     -1.514319   -5.858271    0.415589
O     -2.398124   -4.788709    0.052292
C     -1.769728   -3.595602    0.352196
C     -2.244882   -2.300598    0.176964
C     -1.429122   -1.221945    0.607582
H     -3.851203    2.551208   -3.620450
H     -5.023060    3.917711   -3.736951
H     -3.786712    3.925968   -2.425102
H     -2.862834    1.867928   -1.472646
H     -4.054770   -0.749432    1.706362
H     -7.518462   -1.574231    2.863618
H     -5.940606   -0.801417    3.267149
H     -6.007055   -2.200989    2.101398
H     -7.649442    1.986626   -1.384725
H     -1.261164    0.548220   -0.482538
H     -1.210403    2.202141    1.188704
H      0.743223    1.627647    2.220711
H     -0.114672   -0.826895    3.751513
H      0.513268    0.763039    4.336725
H      1.692971   -0.689526    1.978246
H      2.517563   -1.412508   -0.093959
H      4.942343   -0.778064   -0.708853
H      6.047659   -0.077881    1.322996
H      5.647937    1.650086    1.065717
H      6.600839    2.781116   -0.816088
H      8.974948    2.335829   -1.291661
H      8.516559    1.017100   -2.438570
H      8.058392    2.729614   -2.799133
H      4.340155    2.236385   -1.117332
H      4.076513    0.213884   -3.327624
H      2.426997    2.358741   -2.427390
H      1.482594    0.198355   -2.217108
H      3.471717   -1.829863   -2.266982
H      1.316607   -3.062751    1.604789
H     -1.262134   -6.468065   -0.476121
H     -1.977970   -6.486765    1.204950
H     -3.210247   -2.152735   -0.284444
