48
Lipophilicity 1806 1.809999942779541
C     -7.362046   -0.809742    0.922030
C     -6.781300   -0.236207   -0.365862
N     -5.320547   -0.283603   -0.337363
C     -4.587524   -1.506566   -0.516965
O     -5.204248   -2.573096   -0.785670
C     -3.116042   -1.542379   -0.399310
C     -2.290750   -0.472082   -0.043977
C     -1.006380   -0.981100   -0.064831
C      0.239168   -0.385802    0.163154
C      1.389963   -1.206603    0.000060
C      1.223505   -2.560288   -0.393506
N     -0.020126   -3.081918   -0.603452
C     -1.106378   -2.292046   -0.432987
N     -2.380863   -2.655890   -0.635135
C      2.754456   -0.697955    0.270919
C      3.061147   -0.083455    1.492800
N      4.313946    0.384956    1.726519
C      5.308978    0.266710    0.808814
C      5.065914   -0.360710   -0.424995
C      3.770488   -0.838282   -0.684983
C      6.131626   -0.499204   -1.447635
O      5.816998   -0.671553   -2.656228
N      7.517113   -0.457335   -1.095105
N      0.344755    1.009699    0.488532
C     -0.340988    1.657074    1.451165
C      0.076768    2.970330    1.476835
C      1.026459    3.049913    0.473996
N      1.185431    1.843586   -0.103573
C      1.862572    4.246180    0.150420
F      2.930022    4.309469    1.026058
F      1.106420    5.398303    0.267469
F      2.341103    4.151496   -1.143690
H     -7.090747   -1.880822    1.028666
H     -6.975208   -0.246424    1.797670
H     -8.468910   -0.724447    0.901674
H     -7.112756    0.820120   -0.466042
H     -7.164714   -0.799594   -1.243842
H     -4.809437    0.621538   -0.246057
H     -2.583114    0.542182    0.186807
H      2.086986   -3.201786   -0.515527
H     -2.725416   -3.596975   -0.929558
H      2.304692    0.024854    2.259459
H      6.278005    0.683935    1.042587
H      3.547945   -1.316483   -1.631716
H      7.833170   -0.474795   -0.101223
H      8.245049   -0.498422   -1.842617
H     -1.067086    1.202118    2.112478
H     -0.248098    3.753097    2.149316
