30
Lipophilicity 1164 0.6899999976158142
C      5.920429    0.906106    0.164526
C      5.155700   -0.197451   -0.548536
O      3.759038   -0.028460   -0.329342
C      2.800837   -0.895499   -0.863536
O      3.155393   -1.877152   -1.573255
C      1.374694   -0.650485   -0.589515
C      0.375320   -1.490659   -1.093534
C     -0.962166   -1.228569   -0.796780
O     -1.934300   -2.121581   -1.251694
C     -1.277028   -0.093281   -0.022010
N     -0.261863    0.679012    0.451258
N      1.015641    0.410371    0.179370
C     -2.666108    0.301304    0.288721
C     -3.032691    0.584701    1.614773
C     -4.336058    0.994020    1.913937
C     -5.277316    1.138334    0.891129
C     -4.914991    0.879996   -0.433553
C     -3.612856    0.470362   -0.736954
H      5.609166    1.897575   -0.227388
H      5.716970    0.864658    1.255572
H      7.010234    0.776937   -0.004664
H      5.373290   -0.150315   -1.637693
H      5.481160   -1.184208   -0.153291
H      0.628455   -2.355762   -1.694206
H     -2.905696   -2.066331   -0.974916
H     -2.312564    0.480017    2.417174
H     -4.615555    1.201928    2.938702
H     -6.285149    1.456778    1.124195
H     -5.641423    1.003354   -1.226361
H     -3.340560    0.294297   -1.770412
