52
Lipophilicity 365 3.3499999046325684
C     -6.755838    0.222946   -1.410197
O     -5.374141    0.505525   -1.436640
C     -5.104144    1.719692   -0.760267
C     -4.673548    1.444692    0.683448
O     -3.585212    0.520657    0.726140
C     -2.250464    0.804631    0.388016
C     -1.802834    2.110732    0.115357
C     -0.466837    2.347011   -0.218359
N     -0.049297    3.615864   -0.462954
C      1.241814    3.877865   -0.783142
N      2.139737    2.865173   -0.873054
C      1.786066    1.571980   -0.637167
N      2.768074    0.534320   -0.802818
C      4.168860    0.721220   -0.534810
C      4.611863    1.636727    0.437898
C      5.977388    1.785946    0.696256
C      6.912327    1.017970   -0.002006
C      6.482364    0.090292   -0.958292
C      5.113780   -0.061003   -1.218437
C      7.444872   -0.707852   -1.671882
C      8.250726   -1.376328   -2.269569
C      0.448040    1.275784   -0.293573
C      0.004625   -0.025979    0.001832
C     -1.342609   -0.263966    0.338403
O     -1.820918   -1.551316    0.630933
C     -1.025799   -2.734755    0.624335
C     -1.893933   -3.939123    0.979623
O     -2.516457   -3.749110    2.236977
C     -1.771549   -4.379335    3.255690
H     -7.145298    0.182255   -0.369080
H     -6.922246   -0.772572   -1.870279
H     -7.322740    0.970103   -2.008101
H     -4.276035    2.229367   -1.293842
H     -5.959133    2.437261   -0.766964
H     -4.411368    2.388790    1.205674
H     -5.528151    1.000085    1.234293
H     -2.478650    2.952751    0.166401
H      1.554701    4.894932   -0.974588
H      2.474413   -0.356152   -1.263572
H      3.904566    2.221882    1.010761
H      6.311114    2.493627    1.444268
H      7.967959    1.142096    0.207945
H      4.781945   -0.780245   -1.958285
H      8.958034   -1.963111   -2.794299
H      0.699937   -0.851186   -0.012178
H     -0.200170   -2.638735    1.361498
H     -0.593670   -2.889003   -0.388212
H     -2.691785   -4.031204    0.212300
H     -1.289034   -4.875043    0.914585
H     -1.793201   -5.484784    3.133978
H     -0.721881   -4.012032    3.282151
H     -2.236265   -4.139344    4.233919
