32
Lipophilicity 228 3.009999990463257
N      7.751637    1.794835   -0.164471
C      6.679708    1.376331   -0.287220
C      5.346354    0.855768   -0.439896
C      5.152508   -0.475144   -0.828367
C      3.857258   -0.980009   -0.978765
C      2.742509   -0.165797   -0.727065
N      1.421530   -0.701973   -0.912320
C      0.286416   -0.346883   -0.109799
N      0.443458    0.325051    1.062847
C     -0.624685    0.637254    1.839632
C     -1.907134    0.260242    1.445502
C     -2.060017   -0.444292    0.241479
N     -3.348203   -0.871636   -0.227759
C     -4.587361   -0.636698    0.510635
C     -5.125993    0.774489    0.347121
C     -5.794535   -0.383623   -0.376470
N     -0.957475   -0.732831   -0.501065
C      2.943951    1.177442   -0.360455
C      4.239599    1.682034   -0.211053
H      6.001439   -1.121404   -1.016907
H      3.720689   -2.010561   -1.281832
H      1.292034   -1.457434   -1.623114
H     -0.477120    1.175993    2.766055
H     -2.753108    0.510453    2.071457
H     -3.389964   -1.452933   -1.095452
H     -4.742242   -1.135269    1.490898
H     -4.530625    1.440698   -0.313684
H     -5.693919    1.150890    1.223815
H     -6.763503   -0.693691    0.068229
H     -5.605202   -0.398807   -1.471230
H      2.104023    1.843452   -0.214585
H      4.377974    2.718193    0.073839
