43
Lipophilicity 1245 3.140000104904175
C      1.190603    1.442118   -1.550986
C      2.054269    0.689781   -0.534430
N      2.376467    1.561836    0.600511
C      1.437423    1.841574    1.646945
N      1.786899    2.673302    2.663541
C      0.916377    2.953881    3.667193
C     -0.358031    2.386731    3.664767
F     -1.228586    2.668424    4.666498
C     -0.711310    1.531381    2.612365
N     -2.016528    0.928072    2.570596
C     -2.472334    0.077576    1.507691
C     -3.717371   -0.515523    1.451514
C     -3.695568   -1.219014    0.264883
N     -2.497135   -1.038182   -0.331416
N     -1.747049   -0.249023    0.419888
C     -4.840971   -2.047427   -0.258003
C     -5.006424   -2.079364   -1.769770
C     -4.459727   -3.296792   -1.037488
N      0.198458    1.280595    1.632711
C      3.323029    0.191090   -1.184700
C      3.655548   -1.173108   -1.161272
C      4.841718   -1.600847   -1.761301
C      5.684724   -0.672427   -2.374093
F      6.838913   -1.076624   -2.959313
C      5.327490    0.677392   -2.376231
N      4.168626    1.075430   -1.786805
H      0.225618    1.739703   -1.089686
H      1.710556    2.358026   -1.905005
H      0.970685    0.789437   -2.422897
H      1.468168   -0.181983   -0.166133
H      3.313746    2.023371    0.648576
H      1.214751    3.618474    4.467049
H     -2.683738    1.117388    3.352433
H     -4.522990   -0.444200    2.170524
H     -2.177739   -1.440034   -1.239917
H     -5.783061   -2.118835    0.326724
H     -4.250464   -1.528654   -2.367633
H     -6.055376   -2.198604   -2.114183
H     -5.187537   -4.131098   -0.951594
H     -3.375817   -3.476240   -1.196041
H      3.006387   -1.897103   -0.684864
H      5.106319   -2.650367   -1.749885
H      5.970979    1.409866   -2.844963
