54
Lipophilicity 838 3.799999952316284
C      7.162250   -0.389468    2.351232
C      6.977389   -0.789530    0.884912
C      7.262503   -2.278809    0.697055
O      5.638732   -0.521955    0.465563
C      5.150781    0.762432    0.187990
O      5.923272    1.759124    0.254120
N      3.769585    0.944895   -0.184662
C      3.318080    2.258999   -0.668954
C      1.897312    2.190939   -1.240290
C      0.925329    1.545329   -0.240765
C      1.478082    0.235012    0.384729
C      2.838636   -0.193400   -0.182344
O     -0.313738    1.296460   -0.907999
C     -1.516336    1.026329   -0.240819
N     -1.569666    1.045899    1.120151
C     -2.721119    0.773389    1.783132
N     -3.847035    0.466777    1.090876
C     -3.850591    0.426163   -0.270071
O     -5.022220    0.095989   -0.963362
C     -6.161332   -0.428533   -0.342345
C     -7.352911    0.304896   -0.375739
C     -8.498194   -0.190263    0.249905
C     -8.442223   -1.426937    0.895580
N     -7.285382   -2.143235    0.898621
C     -6.152182   -1.690424    0.291518
C     -4.923593   -2.551163    0.317435
C     -2.675861    0.733862   -0.978910
C     -2.629837    0.657055   -2.482556
H      6.426211   -0.922436    2.992788
H      8.189994   -0.639205    2.692169
H      7.012125    0.704682    2.473564
H      7.693102   -0.217826    0.253327
H      7.132435   -2.552638   -0.372172
H      8.310236   -2.512197    0.989531
H      6.561559   -2.887364    1.307624
H      4.001419    2.618140   -1.468974
H      3.345734    2.988017    0.170351
H      1.549285    3.217115   -1.489564
H      1.910744    1.601154   -2.183284
H      0.752389    2.286016    0.573722
H      0.757748   -0.602746    0.245793
H      1.590789    0.385383    1.483075
H      3.226471   -1.030159    0.437858
H      2.713539   -0.569501   -1.221955
H     -2.742034    0.799195    2.863673
H     -7.385081    1.266472   -0.872805
H     -9.419120    0.380820    0.238835
H     -9.320632   -1.820499    1.389848
H     -4.258361   -2.232906    1.146435
H     -5.205331   -3.614270    0.478893
H     -4.375115   -2.483355   -0.646662
H     -2.264999   -0.346518   -2.789967
H     -1.949439    1.434065   -2.894995
H     -3.633401    0.830727   -2.926668
