53
Lipophilicity 1833 2.680000066757202
O     -0.110953    0.930195   -2.072588
C     -0.696195    0.698627   -0.803416
C      0.511562    0.704941    0.187702
C      1.611242   -0.317812   -0.162942
N      2.714665   -0.236252    0.818310
C      3.673921    0.859315    0.503044
C      4.991285    0.349203   -0.098266
C      5.696442   -0.628325    0.856741
C      4.707070   -1.440926    1.709908
C      3.348910   -1.562943    1.012217
C     -1.487351   -0.682009   -0.803064
C     -2.830732   -0.609971   -1.585811
C     -3.498125   -1.987111   -1.679889
C     -3.751217   -2.566642   -0.286190
C     -2.448705   -2.644185    0.513991
C     -1.769537   -1.270747    0.606748
C     -1.636868    1.874672   -0.470122
C     -2.044586    2.142383    0.857253
C     -2.929001    3.187052    1.139778
C     -3.433961    3.977756    0.108864
C     -3.059977    3.722594   -1.209419
C     -2.175898    2.680088   -1.500523
H     -0.668315    0.540917   -2.790852
H      0.959254    1.722300    0.173752
H      0.198947    0.529695    1.235113
H      1.994838   -0.154512   -1.194966
H      1.156006   -1.331682   -0.145432
H      3.238476    1.610174   -0.192345
H      3.900959    1.405624    1.443818
H      5.662751    1.208044   -0.314861
H      4.772915   -0.160866   -1.062129
H      6.326689   -1.320446    0.256752
H      6.373785   -0.062679    1.533226
H      4.561582   -0.939346    2.691999
H      5.122549   -2.453557    1.903384
H      2.682867   -2.193206    1.640544
H      3.492427   -2.082836    0.036716
H     -0.844458   -1.418147   -1.336153
H     -2.680384   -0.237440   -2.618728
H     -3.533604    0.087201   -1.079336
H     -4.466874   -1.889883   -2.215880
H     -2.851888   -2.678951   -2.263790
H     -4.183154   -3.585725   -0.384866
H     -4.486970   -1.932598    0.256067
H     -1.757597   -3.371580    0.033585
H     -2.672063   -3.012717    1.538482
H     -0.830378   -1.420580    1.174560
H     -2.425298   -0.589561    1.186998
H     -1.690228    1.550605    1.687056
H     -3.226924    3.380530    2.162280
H     -4.120352    4.784588    0.331054
H     -3.460409    4.330649   -2.010416
H     -1.927141    2.506081   -2.538171
