69
Lipophilicity 1135 2.700000047683716
C     -6.918488    4.954631    0.055194
O     -6.645327    3.560622   -0.008882
C     -5.359465    3.008900   -0.116196
C     -5.237153    1.617756   -0.113590
C     -3.984944    1.004607   -0.207373
N     -3.912806   -0.425293   -0.192918
C     -3.842521   -1.195740    1.031280
C     -3.575962   -2.635517    0.599728
C     -3.813176   -2.684942   -0.926874
C     -3.836272   -1.224917   -1.402321
N     -5.038673   -3.429205   -1.334382
C     -4.908445   -4.877511   -1.086496
C     -6.301976   -2.908465   -0.766839
C     -2.817495    1.792906   -0.301263
N     -1.580919    1.211311   -0.362923
C     -0.435310    1.947994   -0.462774
C     -0.518314    3.346683   -0.515717
C     -1.760444    3.975726   -0.434083
O     -1.811761    5.234438   -0.465039
C     -2.931590    3.204682   -0.321889
C     -4.202064    3.801813   -0.225464
C      0.872813    1.254151   -0.555465
O      0.912107    0.101063   -1.064536
N      2.085049    1.868490   -0.084659
C      3.357064    1.200450   -0.073332
C      3.475915   -0.142256    0.309928
C      4.723388   -0.771763    0.318878
C      5.897563   -0.070930   -0.040450
C      5.758406    1.289443   -0.403317
C      4.509613    1.915087   -0.407731
N      7.204861   -0.726769   -0.043979
C      8.397205    0.033256   -0.468579
C      9.703802   -0.746734   -0.310251
O      9.532774   -2.088738   -0.696214
C      8.722656   -2.722136    0.266339
C      7.288524   -2.177057    0.229995
H     -8.014367    5.106475    0.139253
H     -6.551331    5.456658   -0.865885
H     -6.432581    5.394346    0.952801
H     -6.126040    1.003613   -0.031502
H     -3.016592   -0.817918    1.675542
H     -4.810692   -1.119973    1.573756
H     -2.511245   -2.882176    0.809268
H     -4.196725   -3.350732    1.176726
H     -2.931353   -3.169286   -1.403952
H     -4.696203   -1.002371   -2.073293
H     -2.898234   -0.974891   -1.949977
H     -5.707912   -5.418796   -1.631829
H     -5.000214   -5.120794   -0.008877
H     -3.941699   -5.260819   -1.467766
H     -7.149543   -3.603996   -0.983448
H     -6.250757   -2.779441    0.339484
H     -6.567725   -1.938509   -1.247862
H     -1.496819    0.170171   -0.321567
H      0.364815    3.956734   -0.646354
H     -4.287059    4.880198   -0.234369
H      2.075955    2.871163    0.210921
H      2.605950   -0.702157    0.618309
H      4.748631   -1.810498    0.602078
H      6.605870    1.888742   -0.693382
H      4.438201    2.959163   -0.690101
H      8.495132    0.954358    0.142440
H      8.276645    0.320795   -1.533541
H     10.092590   -0.656686    0.733313
H     10.474755   -0.289838   -0.965310
H      9.155872   -2.628525    1.293435
H      8.694663   -3.810200    0.039767
H      6.717516   -2.726461   -0.552511
H      6.831860   -2.394384    1.219029
