57
Lipophilicity 924 2.759999990463257
C     -5.894851   -0.600024   -2.204484
C     -5.650865   -0.710875   -0.694348
C     -6.424962   -1.874909   -0.070456
N     -5.932610    0.555631    0.017891
C     -7.067055    1.311313    0.010695
C     -8.239178    1.129659   -0.904684
N     -7.028872    2.325368    0.899759
C     -5.838953    2.196776    1.512900
C     -5.165285    1.120671    0.982406
C     -3.801338    0.708853    1.373454
N     -2.864329    0.484729    0.413606
C     -1.584894    0.152939    0.731673
N     -0.641866   -0.112462   -0.315982
C      0.780619   -0.193580   -0.120147
C      1.533807   -1.083079   -0.900855
C      2.920518   -1.163157   -0.743770
C      3.572984   -0.338422    0.180471
C      2.830149    0.569687    0.945420
C      1.443339    0.647220    0.793354
N      4.991781   -0.408159    0.329093
C      6.040548    0.293452    1.091789
C      7.188765   -0.496055    0.540502
C      6.109380   -1.198653   -0.221368
N      8.072023    0.278578   -0.335274
C      9.226808   -0.315978   -0.939912
O      9.549233   -1.505652   -0.667166
C     10.033737    0.460363   -1.928075
N     -1.227787    0.030061    2.038177
C     -2.124144    0.252925    3.033051
C     -3.436771    0.605387    2.722944
F     -4.336965    0.814432    3.717422
H     -5.368307   -1.425536   -2.730123
H     -6.969088   -0.682801   -2.456205
H     -5.496773    0.362968   -2.585075
H     -4.579326   -0.965933   -0.584954
H     -7.517571   -1.749402   -0.188142
H     -6.125058   -2.831571   -0.548722
H     -6.190771   -1.939268    1.012351
H     -7.954099    1.405097   -1.940873
H     -9.071248    1.796058   -0.591053
H     -8.612925    0.089349   -0.870607
H     -5.478131    2.864564    2.282562
H     -1.023107   -0.326910   -1.266281
H      1.043174   -1.722240   -1.624929
H      3.486757   -1.862625   -1.346460
H      3.326525    1.222358    1.652735
H      0.894082    1.380937    1.369100
H      6.057076    1.375683    0.835591
H      5.904382    0.130846    2.183946
H      7.717330   -1.116020    1.297340
H      6.179426   -1.067386   -1.325508
H      6.016307   -2.269136    0.068253
H      7.837712    1.264485   -0.583671
H      9.481436    0.518553   -2.888423
H     10.212055    1.486630   -1.545287
H     11.013871   -0.030577   -2.101725
H     -1.816698    0.154840    4.064905
