63
Lipophilicity 298 2.4100000858306885
C     -6.062489   -2.109750   -0.425239
C     -5.293254   -1.797943    0.867493
C     -4.275213   -2.909902    1.155410
C     -4.611212   -0.402758    0.845643
N     -3.675896   -0.282478   -0.281419
C     -2.250645   -0.402133   -0.130479
O     -1.748860   -0.756999    0.974905
C     -1.353475   -0.151161   -1.306637
N     -0.111722    0.536993   -0.888659
C      1.002085   -0.210875   -0.578585
O      0.951992   -1.472838   -0.608109
C      2.214925    0.412495   -0.238221
C      2.265084    1.807381   -0.176168
C      1.131151    2.557567   -0.461255
C     -0.062714    1.914345   -0.808893
C     -1.244270    2.760213   -1.080876
C     -1.324780    3.491136   -2.275823
C     -2.446219    4.282068   -2.541188
C     -3.485845    4.353315   -1.613082
C     -3.405798    3.635150   -0.415937
C     -2.286609    2.844569   -0.146018
N      3.369858   -0.381045    0.087145
C      4.690306   -0.089728   -0.386175
O      4.890092    0.867186   -1.184803
O      5.752640   -0.900124    0.023625
C      7.072014   -0.750265   -0.488768
C      7.953953   -1.816388    0.094941
C      7.807241   -3.150138   -0.319080
C      8.625681   -4.136025    0.238232
N      9.552301   -3.802901    1.178897
C      9.710183   -2.518734    1.603761
C      8.909916   -1.502062    1.074726
C     -5.642487    0.711239    0.802362
O     -5.976961    1.190313   -0.271332
C     -6.326671    1.203962    2.048077
F     -7.664305    0.855546    1.996082
F     -5.765421    0.656028    3.189887
F     -6.219151    2.583205    2.115139
H     -6.837431   -1.342138   -0.614267
H     -6.575077   -3.087877   -0.330205
H     -5.380352   -2.158422   -1.297661
H     -6.024963   -1.810287    1.704732
H     -3.538298   -2.992397    0.330111
H     -3.733532   -2.704725    2.103576
H     -4.794475   -3.886327    1.265309
H     -4.046116   -0.284014    1.794118
H     -4.064438   -0.135310   -1.246459
H     -1.132674   -1.123039   -1.799536
H     -1.888074    0.445836   -2.076756
H      3.173000    2.314772    0.124416
H      1.179037    3.639175   -0.397820
H     -0.525210    3.440643   -3.003673
H     -2.507454    4.839327   -3.468309
H     -4.352416    4.965869   -1.821017
H     -4.207795    3.692908    0.303765
H     -2.231609    2.302075    0.789416
H      3.228725   -1.289904    0.583588
H      7.058135   -0.852856   -1.598050
H      7.456047    0.263827   -0.239163
H      7.066875   -3.421410   -1.062377
H      8.522548   -5.166673   -0.075345
H     10.455316   -2.286721    2.354847
H      9.034807   -0.480799    1.426154
