55
Lipophilicity 631 3.0999999046325684
C     -8.356154   -1.404915    1.239185
C     -7.416664   -0.970173    0.107939
C     -7.669256   -1.790525   -1.160152
C     -5.978881   -1.098355    0.527514
N     -5.457233   -2.199569    1.106061
O     -4.197313   -1.929821    1.259819
C     -3.945701   -0.730616    0.795529
N     -5.052937   -0.143039    0.301104
N     -2.640621   -0.124643    0.794885
C     -1.530831   -0.742472    1.519959
C     -0.285022   -0.744633    0.640551
N     -0.042109    0.582672    0.058044
C     -1.167508    1.289261   -0.596015
C     -0.836197    2.765504   -0.883790
C     -2.431457    1.231917    0.284676
C      1.315190    0.850855   -0.331750
N      1.644879    0.957733   -1.646918
C      2.929002    1.170329   -2.032192
C      3.942007    1.271418   -1.077549
O      5.262270    1.478522   -1.507419
C      6.403592    1.535860   -0.651307
C      6.707622    0.177999   -0.055153
C      6.674047   -0.954290   -0.886013
C      6.962751   -2.213492   -0.358491
N      7.294782   -2.343536    0.951371
C      7.359312   -1.269820    1.781053
C      7.075167    0.014831    1.299862
C      7.172817    1.132632    2.206861
N      7.251183    2.029858    2.932701
C      3.582838    1.155060    0.274894
N      2.285952    0.941357    0.615834
H     -8.217369   -2.480995    1.477565
H     -8.157205   -0.804919    2.151951
H     -9.414110   -1.239812    0.942070
H     -7.626624    0.098968   -0.120574
H     -8.718948   -1.659929   -1.499451
H     -6.997730   -1.445998   -1.975850
H     -7.483301   -2.871058   -0.974314
H     -1.765734   -1.789045    1.808681
H     -1.331444   -0.164371    2.448371
H      0.580912   -1.067077    1.260999
H     -0.415503   -1.483463   -0.180585
H     -1.390722    0.784659   -1.561618
H     -0.077884    2.854302   -1.688118
H     -0.453506    3.265340    0.032869
H     -1.742891    3.304768   -1.233576
H     -3.301474    1.571453   -0.317751
H     -2.327429    1.923105    1.150631
H      3.164121    1.252407   -3.084987
H      7.279023    1.852405   -1.255176
H      6.239207    2.317042    0.119300
H      6.420086   -0.864848   -1.934669
H      6.926187   -3.088940   -0.993116
H      7.636060   -1.419259    2.817309
H      4.320752    1.229357    1.060191
