40
Lipophilicity 972 1.600000023841858
C     -6.196172    2.749490    0.851854
C     -5.561187    1.407152    0.673956
C     -4.174405    1.296758    0.506264
C     -3.591755    0.030681    0.323448
C     -4.425066   -1.100546    0.309600
C     -5.802812   -0.947655    0.475862
N     -6.336268    0.289380    0.650762
C     -2.123479   -0.109266    0.146896
C     -1.233682    0.669763    0.907908
C      0.147601    0.536502    0.741492
C      0.667377   -0.386473   -0.178038
C     -0.218292   -1.150477   -0.954964
C     -1.599678   -1.018716   -0.789065
C      2.133429   -0.496171   -0.360718
N      2.841482    0.652390   -0.534755
C      4.185791    0.660056   -0.717259
C      4.859301    1.870794   -0.897997
C      6.242005    1.861570   -1.089328
N      6.922201    0.684584   -1.098569
C      6.294240   -0.509226   -0.924511
C      4.903137   -0.552014   -0.728391
C      4.212088   -1.760686   -0.535574
O      4.926196   -2.964293   -0.533360
C      2.813522   -1.737736   -0.342230
C      2.103032   -2.966602   -0.065473
N      1.534290   -3.949784    0.156802
H     -5.712570    3.287360    1.694464
H     -6.078175    3.344119   -0.078212
H     -7.279174    2.642549    1.074098
H     -3.562786    2.191059    0.500936
H     -4.014228   -2.094890    0.187962
H     -6.449203   -1.815075    0.468152
H     -1.605087    1.370792    1.644754
H      0.813139    1.144665    1.342099
H      0.158251   -1.835786   -1.704078
H     -2.258830   -1.611398   -1.410860
H      4.319250    2.809559   -0.891806
H      6.775703    2.791812   -1.231052
H      6.883921   -1.416658   -0.939273
H      4.486892   -3.867584   -0.407243
