72
Lipophilicity 447 2.200000047683716
C      5.918714   -2.126587   -1.904217
N      4.983319   -1.135624   -1.365821
C      3.575868   -1.163774   -1.688695
C      3.081272   -1.918281   -2.765025
C      1.720211   -1.856715   -3.054090
N      0.895855   -1.094561   -2.290581
C      1.373420   -0.389620   -1.231192
N      0.502167    0.420008   -0.425814
C     -0.934725    0.353949   -0.457445
C     -1.609000   -0.851134   -0.718752
C     -3.010621   -0.894289   -0.761136
C     -3.743107    0.272138   -0.484843
C     -3.081214    1.460343   -0.149465
C     -1.680954    1.499705   -0.150301
C     -3.842710    2.675673    0.184267
O     -3.942543    3.576542   -0.690907
N     -4.429574    2.869552    1.489261
C     -4.530120    4.233579    2.030872
C     -5.643781    4.313715    3.080910
O     -5.505483    3.288739    4.047431
C     -5.689885    2.031833    3.428432
C     -4.561824    1.749684    2.432329
N     -3.683750   -2.134708   -1.046817
C     -3.340112   -2.914423   -2.239493
C     -3.455205   -4.405482   -1.915457
O     -4.727121   -4.706328   -1.373817
C     -4.890773   -4.051146   -0.128966
C     -4.882834   -2.529230   -0.304147
N      2.702341   -0.417630   -0.955207
C      5.488256   -0.093716   -0.515007
C      5.287688   -0.179717    0.870349
C      5.755081    0.830849    1.723712
C      5.522032    0.730099    3.208189
O      6.179464   -0.392542    3.731372
C      6.437270    1.929824    1.180519
C      6.637877    2.024681   -0.199031
C      6.155207    1.025277   -1.059608
C      6.369166    1.150130   -2.543676
H      5.535388   -3.152884   -1.707084
H      6.039719   -1.974274   -2.998860
H      6.916884   -2.031665   -1.423181
H      3.730468   -2.523238   -3.385697
H      1.315458   -2.413809   -3.888201
H      0.948040    1.144515    0.183071
H     -1.051332   -1.768517   -0.848838
H     -4.826466    0.251814   -0.519224
H     -1.169352    2.423291    0.092867
H     -4.756757    4.965408    1.224647
H     -3.559495    4.513178    2.497043
H     -6.644601    4.275107    2.590932
H     -5.580728    5.295723    3.594847
H     -6.681099    1.972805    2.920728
H     -5.686591    1.242383    4.209515
H     -3.605450    1.614047    2.979702
H     -4.811228    0.808070    1.900437
H     -4.044236   -2.652341   -3.058486
H     -2.309314   -2.695017   -2.590363
H     -3.322602   -4.983289   -2.852670
H     -2.639837   -4.716551   -1.223806
H     -5.865495   -4.355886    0.305154
H     -4.099986   -4.361757    0.590725
H     -4.896555   -2.049705    0.700407
H     -5.786481   -2.209522   -0.867647
H      4.762049   -1.034171    1.280949
H      4.432070    0.625813    3.398397
H      5.860606    1.651521    3.735409
H      7.151062   -0.183118    3.720813
H      6.808285    2.718026    1.824693
H      7.165511    2.884303   -0.596300
H      5.419674    0.960124   -3.083017
H      6.724866    2.165531   -2.820396
H      7.127653    0.413271   -2.874700
