41
Lipophilicity 22 2.2699999809265137
O     -2.420770    2.953582   -0.606495
C     -2.760658    1.947024    0.318513
C     -3.804365    0.995853   -0.243583
C     -3.476303    0.081443   -1.263447
C     -4.447059   -0.783119   -1.777825
C     -5.753630   -0.741714   -1.285981
C     -6.092666    0.166155   -0.280079
C     -5.125609    1.033074    0.238105
C     -1.540821    1.196055    0.820776
C     -1.598559    0.564111    2.073420
C     -0.511558   -0.167393    2.555330
C      0.657608   -0.291394    1.785873
C      1.767552   -1.023883    2.240436
O      1.752746   -1.591306    3.366848
C      2.905465   -1.126091    1.439136
C      2.939541   -0.498543    0.183911
N      1.851928    0.210314   -0.243064
C      0.724219    0.329543    0.517739
C     -0.375306    1.062976    0.042693
C      4.150348   -0.597416   -0.669973
C      4.866492   -1.802167   -0.774924
C      6.000618   -1.875805   -1.585291
C      6.414663   -0.743386   -2.286938
N      5.716517    0.417231   -2.177900
C      4.607219    0.515206   -1.397293
H     -2.293958    2.537529   -1.498429
H     -3.195355    2.474435    1.196341
H     -2.470490    0.036416   -1.660592
H     -4.186144   -1.484841   -2.559496
H     -6.503881   -1.411591   -1.685788
H     -7.106266    0.199214    0.098139
H     -5.409216    1.731177    1.015778
H     -2.493671    0.635857    2.679335
H     -0.590961   -0.638606    3.527399
H      3.764634   -1.676917    1.803394
H      1.874127    0.656945   -1.188361
H     -0.315493    1.522606   -0.934785
H      4.540054   -2.689077   -0.246642
H      6.551449   -2.803495   -1.671617
H      7.291835   -0.786550   -2.918587
H      4.095723    1.466546   -1.331152
