47
Lipophilicity 193 2.640000104904175
C      6.826422    0.965248    1.020366
C      5.753296    0.545239    1.696617
C      4.393074    1.155300    1.484966
C      3.800523    0.805636    0.111621
C      3.464164   -0.690476   -0.008924
C      2.975396   -1.081081   -1.415107
C      1.683932   -0.377333   -1.879721
C      0.477816   -0.530715   -0.936040
C      0.034079   -1.993882   -0.766416
C     -1.206478   -2.125093    0.127206
C     -2.432134   -1.565446   -0.534194
O     -3.053627   -2.265533   -1.379071
N     -2.867775   -0.231068   -0.236300
C     -4.056711    0.361723   -0.855410
C     -5.334241   -0.134148   -0.153952
C     -5.443831    0.399531    1.280226
C     -5.322327    1.895826    1.304482
O     -5.843238    2.549433    2.246836
N     -4.573029    2.579666    0.293855
C     -3.973335    1.864247   -0.792180
O     -3.330072    2.492270   -1.674859
H      7.795417    0.513210    1.205120
H      6.748407    1.760481    0.285313
H      5.868987   -0.238376    2.439517
H      4.470981    2.260152    1.581291
H      3.706021    0.800848    2.283705
H      4.507199    1.103643   -0.693243
H      2.871907    1.401334   -0.014596
H      2.710119   -0.975876    0.754587
H      4.378114   -1.286596    0.202084
H      2.828241   -2.181316   -1.450039
H      3.779739   -0.851839   -2.147714
H      1.407854   -0.779027   -2.879060
H      1.888109    0.704785   -2.025045
H      0.701496   -0.080349    0.053887
H     -0.358895    0.053511   -1.375203
H     -0.170880   -2.447001   -1.761358
H      0.852242   -2.573021   -0.288871
H     -1.379389   -3.201491    0.344093
H     -1.029489   -1.619321    1.101100
H     -2.331116    0.321730    0.471180
H     -4.101455    0.064470   -1.926800
H     -6.222360    0.199809   -0.735189
H     -5.349678   -1.245133   -0.134643
H     -6.424018    0.095938    1.707192
H     -4.639840   -0.039329    1.908991
H     -4.479619    3.619419    0.338269
