47
Lipophilicity 901 4.170000076293945
C      4.793769   -1.306501   -1.529098
C      3.461525   -1.253475   -0.787798
C      3.653260   -0.786776    0.663065
C      2.327264   -0.757646    1.438835
C      1.370432    0.296875    0.932823
N      1.802338    1.459324    0.389254
C      0.664463    2.109991    0.104294
C      0.549711    3.376640   -0.459660
N      1.700752    4.141660   -0.820265
N     -0.697492    3.882967   -0.656884
C     -1.828147    3.186086   -0.334436
C     -3.076810    3.766008   -0.583031
C     -4.246923    3.064024   -0.297758
C     -4.177789    1.773594    0.225746
C     -2.939703    1.178167    0.484567
C     -1.741801    1.877531    0.233792
C     -0.434369    1.373718    0.466007
N      0.010892    0.219654    1.030815
C     -0.737657   -0.855139    1.699366
C     -1.293495   -1.860116    0.716067
C     -0.618569   -2.175164   -0.479349
C     -1.135350   -3.139996   -1.349134
C     -2.317346   -3.811638   -1.028924
C     -2.981051   -3.525225    0.166121
C     -2.467760   -2.561817    1.039576
H      5.260674   -0.298821   -1.554929
H      4.625196   -1.646664   -2.572579
H      5.484966   -2.019024   -1.030530
H      2.782765   -0.557846   -1.326476
H      3.003969   -2.266769   -0.798132
H      4.128154    0.218659    0.683525
H      4.341332   -1.491399    1.179588
H      2.539696   -0.549645    2.508894
H      1.867247   -1.765696    1.370516
H      1.588356    5.091547   -1.238811
H      2.665164    3.768344   -0.675080
H     -3.141612    4.760802   -1.006621
H     -5.210288    3.515808   -0.496189
H     -5.090396    1.226077    0.424319
H     -2.961061    0.172382    0.846063
H     -0.087478   -1.395701    2.416783
H     -1.528774   -0.415157    2.340542
H      0.303871   -1.678458   -0.746316
H     -0.615970   -3.370281   -2.270417
H     -2.714962   -4.559024   -1.703275
H     -3.891591   -4.053186    0.418380
H     -2.989399   -2.358695    1.966757
