61
Lipophilicity 1783 2.9600000381469727
C     -3.677350    4.282996    2.390237
C     -3.832501    2.827008    2.088745
O     -4.587213    2.120862    2.809856
N     -3.092487    2.233359    1.011397
C     -3.200332    0.811056    0.664337
C     -1.830173    0.221752    0.256709
C     -2.029748   -0.539663   -1.094939
C     -0.983026   -0.117252   -2.155731
C      0.400453   -0.687596   -1.829011
N      0.329068   -2.157142   -1.734509
C      1.666006   -2.790395   -1.652372
C      2.487963   -2.335298   -0.463831
C      2.379644   -3.007592    0.783496
C      3.091056   -2.553397    1.909430
C      3.909564   -1.434673    1.762023
N      4.643206   -0.825422    2.720107
C      5.239010    0.206363    2.090748
C      6.063176    1.177432    2.658428
C      6.534077    2.213781    1.828538
C      6.181149    2.256471    0.460423
C      5.347794    1.267787   -0.091568
C      4.889472    0.260332    0.756767
C      4.035098   -0.794632    0.546645
C      3.345572   -1.215187   -0.586445
C     -0.563535   -2.578699   -0.640647
C     -1.991502   -2.074518   -0.894433
C     -3.407714   -0.115797   -1.511328
C     -4.074929   -0.452095   -2.699250
C     -5.392230   -0.007692   -2.890864
C     -6.035389    0.749477   -1.896906
C     -5.361237    1.064633   -0.707713
C     -4.041538    0.627368   -0.541434
H     -3.746204    4.867550    1.449121
H     -2.689205    4.468102    2.862746
H     -4.474840    4.621550    3.083620
H     -2.536845    2.857816    0.383239
H     -3.629297    0.216329    1.501772
H     -1.462003   -0.440493    1.068216
H     -1.080011    1.034543    0.146144
H     -1.280740   -0.495904   -3.157839
H     -0.919906    0.990935   -2.225835
H      1.095969   -0.392222   -2.642014
H      0.771516   -0.244299   -0.879482
H      1.552043   -3.895550   -1.622350
H      2.223295   -2.580047   -2.591866
H      1.726770   -3.862929    0.885036
H      2.994637   -3.053175    2.864504
H      4.716977   -1.091187    3.730575
H      6.318982    1.148363    3.708163
H      7.163268    2.988546    2.244359
H      6.546919    3.057024   -0.162395
H      5.056471    1.305927   -1.133604
H      3.451003   -0.690385   -1.521517
H     -0.198266   -2.204167    0.336181
H     -0.597086   -3.686257   -0.589984
H     -2.645565   -2.367686   -0.046377
H     -2.375032   -2.582399   -1.804530
H     -3.593950   -1.059169   -3.455658
H     -5.916888   -0.257122   -3.802643
H     -7.055015    1.081581   -2.046090
H     -5.858402    1.631097    0.071604
