40
Lipophilicity 610 2.0
O      1.206408   -0.594038   -2.114526
C      1.121048   -1.030149   -0.934952
O      0.067359   -1.873744   -0.565673
C     -1.027364   -2.189557   -1.424687
C     -1.961225   -0.983963   -1.589489
N     -2.252227   -0.356606   -0.281327
C     -2.632238    1.059949   -0.464009
C     -2.834666    1.740300    0.894444
C     -3.893481    1.000450    1.714834
C     -3.548481   -0.486568    1.820692
C     -3.326340   -1.085847    0.428147
C      2.128421   -0.658161    0.071422
C      2.130484   -1.062422    1.403603
N      3.189046   -0.535159    2.057911
C      3.857241    0.200421    1.153500
C      5.020862    0.938553    1.365675
C      5.560060    1.645133    0.276423
C      4.931478    1.599491   -0.986641
C      3.757707    0.846937   -1.173304
C      3.242874    0.153366   -0.074237
H     -1.587761   -3.040720   -0.986661
H     -0.652101   -2.520099   -2.417712
H     -2.895993   -1.298770   -2.106379
H     -1.449076   -0.263993   -2.266013
H     -3.561252    1.145310   -1.073476
H     -1.820115    1.606344   -0.992827
H     -1.871363    1.749281    1.450553
H     -3.155662    2.792810    0.739101
H     -3.949288    1.441876    2.733091
H     -4.888807    1.118979    1.232429
H     -2.626636   -0.613890    2.429974
H     -4.378069   -1.023588    2.329013
H     -3.044471   -2.151307    0.563522
H     -4.278887   -1.052531   -0.149191
H      1.395120   -1.705400    1.870030
H      3.433044   -0.672499    3.063953
H      5.495341    0.968165    2.338030
H      6.462508    2.227880    0.407495
H      5.355617    2.147757   -1.817766
H      3.280885    0.816008   -2.142613
