45
Lipophilicity 639 1.7899999618530273
C      4.298156    0.115628   -0.975573
C      4.067222   -0.552805    0.342748
N      5.031233   -0.677912    1.279729
C      4.418004   -1.305336    2.304448
C      3.102085   -1.547002    1.978852
N      2.887641   -1.080932    0.737307
C      1.606601   -1.068006    0.030364
C      0.804950    0.193586    0.407252
C     -0.506690    0.412800   -0.429902
C     -0.168895    0.833638   -1.862526
O      1.007375    1.165217   -2.174379
N     -1.191028    0.929818   -2.859267
C     -1.349568    1.573543    0.153340
C     -2.753669    1.609456   -0.033424
C     -3.518613    2.678682    0.439137
C     -2.902848    3.750909    1.080879
C     -1.518428    3.763149    1.238438
C     -0.745547    2.697178    0.768677
C     -1.297557   -0.914535   -0.379621
C     -1.948303   -1.293693    0.816355
C     -2.616097   -2.516913    0.914112
C     -2.621046   -3.400096   -0.165054
C     -1.944025   -3.068965   -1.338645
C     -1.274132   -1.846722   -1.443816
H      5.352921    0.453046   -1.055313
H      3.632915    0.998187   -1.070171
H      4.088352   -0.597168   -1.799754
H      4.900545   -1.561961    3.237841
H      2.355323   -2.016730    2.606126
H      1.780605   -1.107543   -1.065109
H      1.036675   -1.980399    0.308917
H      1.490060    1.058599    0.289952
H      0.546834    0.128417    1.487570
H     -0.953253    1.253505   -3.822965
H     -2.177478    0.659497   -2.655684
H     -3.269555    0.808296   -0.545122
H     -4.591945    2.678425    0.299092
H     -3.497162    4.579779    1.443182
H     -1.039120    4.607371    1.717372
H      0.323177    2.775790    0.887954
H     -1.937893   -0.638731    1.678469
H     -3.122446   -2.784060    1.832652
H     -3.135259   -4.349170   -0.085797
H     -1.926146   -3.767172   -2.165558
H     -0.723975   -1.648667   -2.353086
