53
Lipophilicity 1150 0.800000011920929
C      1.291913   -0.713723    0.222280
C      1.793433    0.637621   -0.201225
C      1.029181    1.693092   -0.683447
C      1.951665    2.640837   -1.086797
N      3.196090    2.192721   -0.837024
N      3.098515    0.989909   -0.291049
C      4.248434    0.221580    0.102159
C      5.380272    0.185251   -0.724772
C      6.512861   -0.540826   -0.345173
C      6.538713   -1.232959    0.877509
C      5.410985   -1.177260    1.715573
C      4.279304   -0.451081    1.333853
C      7.738766   -2.000976    1.276262
O      7.764186   -2.622271    2.373205
O      8.852983   -2.045267    0.442073
C     -0.437345    1.820468   -0.802215
O     -0.911609    2.625942   -1.648655
N     -1.320421    1.092529    0.065107
C     -2.781192    1.129962   -0.094881
C     -3.508447    0.482352    1.117817
C     -3.205447   -1.035634    1.193121
C     -3.668483   -1.724412   -0.107765
C     -5.189894   -1.521023   -0.280890
C     -5.503228   -0.010649   -0.357117
C     -4.760696    0.603266   -1.566084
C     -3.235883    0.409019   -1.394801
C     -2.925396   -1.103746   -1.310702
C     -5.033483    0.677800    0.946051
H      1.053209   -0.704803    1.305658
H      0.386895   -0.986729   -0.355508
H      2.054440   -1.493568    0.020343
H      1.731367    3.602859   -1.530380
H      5.379853    0.711009   -1.671312
H      7.367590   -0.558467   -1.009593
H      5.404948   -1.688746    2.670055
H      3.435521   -0.398451    2.008915
H      9.679550   -2.568370    0.705371
H     -0.915042    0.670237    0.928487
H     -3.086069    2.199854   -0.149915
H     -3.180981    0.974722    2.059520
H     -2.121524   -1.218352    1.350472
H     -3.734099   -1.481828    2.064109
H     -3.443437   -2.811696   -0.052856
H     -5.734721   -1.979652    0.573451
H     -5.538420   -2.029211   -1.206832
H     -6.598277    0.135471   -0.480528
H     -5.000142    1.686291   -1.647921
H     -5.102257    0.118753   -2.507246
H     -2.718833    0.841201   -2.277824
H     -1.832089   -1.266342   -1.208122
H     -3.242607   -1.607076   -2.250406
H     -5.572741    0.247004    1.818259
H     -5.277911    1.762224    0.911388
