29
Lipophilicity 405 1.399999976158142
N      4.553785    1.485238    0.894839
C      3.718257    0.424683    0.431189
N      2.426275    0.682081    0.095512
C      1.604067   -0.302577   -0.354611
C      2.087882   -1.611253   -0.455595
C      3.416017   -1.860660   -0.107284
O      3.879650   -3.029007   -0.193419
N      4.208088   -0.842461    0.326785
C      0.174286    0.015277   -0.681528
C     -0.718906   -0.204770    0.542432
C     -2.152070    0.119127    0.216324
C     -3.000851   -0.870560   -0.307378
C     -4.323068   -0.559939   -0.640357
C     -4.803384    0.740463   -0.462421
C     -3.961010    1.733622    0.044982
C     -2.638099    1.427327    0.379247
H      4.177100    2.455690    0.975827
H      5.548048    1.305464    1.158041
H      1.446474   -2.416370   -0.794569
H      5.201898   -1.037396    0.586107
H     -0.171111   -0.626162   -1.522374
H      0.100682    1.074668   -1.012375
H     -0.369499    0.436673    1.381743
H     -0.640347   -1.262166    0.879532
H     -2.638140   -1.879781   -0.458714
H     -4.974373   -1.326660   -1.039627
H     -5.826615    0.979510   -0.721858
H     -4.332135    2.741862    0.176099
H     -1.992904    2.208078    0.762796
