63
Lipophilicity 1941 2.759999990463257
N     -7.220654    2.547323    2.507209
C     -8.052689    1.672116    1.737116
C     -9.444470    1.718216    1.917009
C    -10.285233    0.904641    1.155322
C     -9.744101    0.033816    0.209629
C     -8.360536   -0.028476    0.026075
C     -7.500518    0.790604    0.780099
N     -6.076098    0.667630    0.633132
C     -5.416597    0.576987   -0.641913
O     -6.084102    0.711090   -1.702442
C     -3.958218    0.327425   -0.735703
C     -3.435522   -0.338704   -1.855866
C     -2.065789   -0.594364   -1.957437
C     -1.184329   -0.176149   -0.947617
C     -1.703385    0.515211    0.161038
C     -3.074855    0.761674    0.267310
C      0.302325   -0.459443   -1.069462
C      1.112922    0.842901   -1.165295
C      2.610217    0.541621   -1.387587
N      3.104175   -0.657376   -0.657148
C      3.378805   -1.811441   -1.545159
C      4.766615   -1.687761   -2.183930
C      5.834803   -1.583792   -1.135493
O      6.110961   -2.590123   -0.433047
N      6.533330   -0.346866   -0.935333
C      7.289740   -0.049226    0.249115
C      6.846166   -0.472932    1.515720
C      7.580859   -0.162068    2.663711
C      8.756425    0.583865    2.557855
C      9.195535    1.029067    1.304806
C      8.462152    0.720389    0.154135
F      8.904431    1.150707   -1.054120
C      2.259613   -1.024950    0.497844
C      0.814455   -1.362085    0.081629
H     -6.193461    2.620952    2.339769
H     -7.639239    3.181167    3.223762
H     -9.878621    2.388477    2.647789
H    -11.358024    0.945627    1.300242
H    -10.396372   -0.607005   -0.371324
H     -7.960509   -0.738269   -0.684705
H     -5.511516    0.594986    1.504686
H     -4.089638   -0.677415   -2.648824
H     -1.695483   -1.121163   -2.827426
H     -1.046615    0.863271    0.947706
H     -3.432120    1.314015    1.124655
H      0.476919   -1.008749   -2.022023
H      0.996731    1.433578   -0.229860
H      0.735174    1.465950   -2.006697
H      3.199241    1.421105   -1.053137
H      2.790217    0.453507   -2.481627
H      2.612155   -1.896477   -2.345934
H      3.353596   -2.770068   -0.978498
H      4.797553   -0.803570   -2.855369
H      4.961196   -2.585522   -2.809169
H      6.546600    0.341817   -1.720259
H      5.921866   -1.023267    1.619195
H      7.234927   -0.494129    3.636714
H      9.323964    0.823253    3.447357
H     10.105195    1.611921    1.227107
H      2.245695   -0.174444    1.215390
H      2.704962   -1.882413    1.049490
H      0.172415   -1.278010    0.984363
H      0.766762   -2.424498   -0.244571
