60
Lipophilicity 411 2.9000000953674316
C     -0.352799    3.526129    0.317947
N     -0.417914    2.071076    0.467041
C      0.851847    1.324456    0.587630
C      0.997821    0.245844   -0.501580
C      2.363227   -0.470775   -0.402956
N      2.986855   -0.348115    0.940260
C      4.068358   -1.338312    1.118933
C      5.242748   -1.005807    0.235388
C      5.541175   -1.795361   -0.885212
C      6.614504   -1.462725   -1.716931
C      7.392689   -0.321649   -1.454819
C      7.103560    0.454342   -0.318925
C      6.030128    0.121365    0.511854
C      8.579776    0.011504   -2.322991
F      8.373000   -0.418680   -3.621693
F      8.796442    1.378290   -2.349733
F      9.703578   -0.612367   -1.815611
C      1.975217   -0.483273    2.005979
C      1.036495    0.735691    2.003573
C     -1.666667    1.419239    0.158311
O     -2.300668    1.768582   -0.875976
C     -2.236325    0.362501    1.071895
C     -3.629698   -0.050345    0.670426
C     -4.744367    0.653134    1.152993
C     -6.034116    0.297036    0.747452
C     -6.226740   -0.755448   -0.165792
N     -7.543261   -1.154250   -0.585420
C     -8.641325   -0.247622   -0.766634
O     -8.451746    0.999333   -0.789219
C    -10.015668   -0.785639   -0.997136
C     -5.110886   -1.464975   -0.635666
C     -3.821391   -1.108106   -0.231914
H     -0.017608    3.782103   -0.709818
H      0.360366    3.953748    1.054961
H     -1.348703    3.985021    0.502615
H      1.699370    2.031485    0.426353
H      0.194431   -0.512596   -0.396485
H      0.889752    0.709790   -1.506429
H      2.222612   -1.539184   -0.685514
H      3.046929   -0.014630   -1.151461
H      4.434021   -1.323568    2.169975
H      3.697240   -2.370953    0.926673
H      4.944435   -2.669091   -1.115439
H      6.835491   -2.097653   -2.565642
H      7.706410    1.319755   -0.074496
H      5.812354    0.741476    1.372696
H      2.457525   -0.541979    3.006925
H      1.383507   -1.416423    1.860965
H      0.071902    0.437916    2.455984
H      1.463582    1.526424    2.658595
H     -2.256941    0.761086    2.109004
H     -1.577230   -0.529605    1.074665
H     -4.614814    1.475234    1.846137
H     -6.877799    0.831328    1.164535
H     -7.690453   -2.152631   -0.857650
H    -10.037460   -1.346218   -1.953398
H    -10.291744   -1.467675   -0.166772
H    -10.758267    0.039485   -1.044530
H     -5.240839   -2.286651   -1.328993
H     -2.971917   -1.653598   -0.624929
