30
Lipophilicity 1325 2.059999942779541
F      3.406016    1.048879   -3.067224
C      4.232948    1.325352   -1.994680
F      5.525036    1.506586   -2.453630
F      3.805717    2.484678   -1.374970
C      4.184771    0.190865   -1.020740
N      5.252443   -0.552323   -0.642383
N      4.820602   -1.462265    0.231667
C      3.497608   -1.252238    0.365974
C      2.601094   -1.944941    1.165454
C      1.259933   -1.528176    1.128634
C      0.874179   -0.441330    0.297605
N     -0.484825    0.019091    0.227923
C     -1.577460   -0.581489    0.994946
C     -2.876552    0.120316    0.705118
C     -3.687596   -0.291553   -0.362060
C     -4.871955    0.392402   -0.642589
C     -5.228909    1.491704    0.140686
N     -4.424365    1.890562    1.161498
C     -3.266576    1.240087    1.455299
N      1.825015    0.184714   -0.458142
N      3.083497   -0.241182   -0.394031
H      2.919429   -2.769606    1.789948
H      0.538035   -2.049748    1.741691
H     -0.688762    0.824852   -0.407359
H     -1.349653   -0.512668    2.080950
H     -1.667685   -1.657776    0.731282
H     -3.402874   -1.138311   -0.974296
H     -5.505147    0.076099   -1.461388
H     -6.143289    2.031498   -0.066198
H     -2.650676    1.595920    2.271218
