48
Lipophilicity 1177 1.5099999904632568
N      8.026427   -0.506938   -0.862864
C      7.257011   -0.215218    0.307293
O      7.839680   -0.170598    1.423871
C      5.804468    0.057022    0.243257
C      5.025735   -0.300021   -0.870005
C      3.656797   -0.024870   -0.870793
C      3.061830    0.597017    0.240410
O      1.693107    0.903830    0.307004
C      0.710097    0.564715   -0.675712
C      0.408354   -0.965317   -0.641184
C     -0.709960   -1.329721    0.362597
C     -0.339171   -0.901653    1.790758
C     -0.898901    0.512787    1.911965
C     -1.553715    0.772983    0.546210
C     -0.558943    1.431469   -0.437036
N     -1.888075   -0.542410   -0.012164
C     -3.140268   -1.104311    0.539908
C     -4.331763   -0.436560   -0.093113
C     -5.161469    0.411730    0.659629
C     -6.253902    1.043369    0.057017
C     -6.523427    0.835535   -1.298554
C     -5.699872   -0.003223   -2.054558
C     -4.606361   -0.636614   -1.456019
C      3.870259    0.926812    1.330847
N      5.200851    0.650861    1.309814
H      9.037378   -0.751568   -0.770663
H      7.636416   -0.398916   -1.823812
H      5.453525   -0.806368   -1.723633
H      3.074303   -0.308929   -1.735603
H      1.103808    0.837717   -1.679109
H      0.080424   -1.283038   -1.655140
H      1.324798   -1.545219   -0.402042
H     -0.901249   -2.425243    0.308833
H     -0.837849   -1.571231    2.525260
H      0.756900   -0.931690    1.974263
H     -1.667503    0.551612    2.714480
H     -0.106632    1.253761    2.154198
H     -2.448032    1.426561    0.649785
H     -0.270760    2.440390   -0.068923
H     -1.080372    1.576785   -1.408903
H     -3.178217   -1.016396    1.648350
H     -3.203965   -2.189567    0.303933
H     -4.960824    0.587794    1.709162
H     -6.890403    1.695870    0.640589
H     -7.368907    1.325902   -1.763456
H     -5.907667   -0.161123   -3.104954
H     -3.971866   -1.280288   -2.052893
H      3.437904    1.402504    2.201351
