69
Lipophilicity 30 3.200000047683716
C     -2.501804   -3.193782   -4.409025
C     -1.264358   -2.995824   -3.574190
C     -0.169530   -3.855928   -3.759702
C      0.991851   -3.701069   -3.004319
C      1.084859   -2.683717   -2.048198
N      2.286329   -2.553382   -1.271184
C      2.845427   -1.285877   -0.888308
O      2.440627   -0.227373   -1.443444
C      3.936288   -1.214056    0.111176
C      4.064570   -2.199234    1.104588
C      5.099327   -2.128450    2.039684
C      6.019180   -1.078949    1.992225
C      5.905343   -0.079386    1.014506
C      4.857284   -0.151072    0.079815
N      6.874204    0.984754    0.950344
C      7.123941    1.827827    2.129340
C      8.585191    2.335841    2.178598
O      9.357168    1.957748    1.052091
C      8.667247    2.284876   -0.133636
C      7.513007    1.303454   -0.334122
C     -0.019959   -1.845677   -1.825051
C     -1.195056   -1.979195   -2.590098
N     -2.336412   -1.138413   -2.323819
C     -2.241010    0.232368   -1.895211
O     -1.161815    0.866163   -2.061952
C     -3.409270    0.930001   -1.301182
C     -4.482104    0.207886   -0.747876
C     -5.587005    0.874404   -0.210146
C     -5.632937    2.280261   -0.198120
O     -6.723013    2.999615    0.320312
C     -7.930059    2.418979    0.818376
C     -7.702663    1.743634    2.141250
C     -8.484906    0.642856    2.519247
C     -8.278133    0.051399    3.768028
C     -7.301691    0.561737    4.624996
C     -6.552273    1.670667    4.223691
N     -6.771597    2.236162    3.006756
C     -4.555218    2.999230   -0.724419
C     -3.453727    2.334889   -1.272145
H     -2.835697   -2.222058   -4.831151
H     -3.313482   -3.617879   -3.779095
H     -2.314712   -3.885847   -5.259704
H     -0.212671   -4.650972   -4.493617
H      1.826741   -4.371438   -3.170159
H      2.859467   -3.413070   -1.112097
H      3.356617   -3.016001    1.169413
H      5.192588   -2.891174    2.801348
H      6.832099   -1.057916    2.707025
H      4.760729    0.620115   -0.673789
H      6.437298    2.699645    2.088754
H      6.897185    1.278935    3.068400
H      9.078742    1.919220    3.083530
H      8.599059    3.444296    2.293717
H      9.367998    2.203167   -0.991704
H      8.290472    3.334366   -0.114880
H      7.916180    0.366802   -0.778748
H      6.774140    1.741990   -1.037469
H      0.022139   -1.119103   -1.025072
H     -3.285611   -1.523208   -2.514841
H     -4.466357   -0.872190   -0.711324
H     -6.393869    0.283582    0.198357
H     -8.676533    3.227106    0.966226
H     -8.342732    1.711925    0.064465
H     -9.242318    0.248077    1.854263
H     -8.875144   -0.799659    4.073803
H     -7.133076    0.107572    5.592290
H     -5.798515    2.084146    4.880785
H     -4.575176    4.081553   -0.721101
H     -2.642860    2.922046   -1.686503
