46
Lipophilicity 1790 3.5
C     -3.331959   -3.072864    1.038500
N     -2.550648   -3.449033   -0.145423
C     -2.652810   -4.809560   -0.684222
C     -1.674985   -2.503092   -0.801726
O     -1.025191   -2.865941   -1.821659
C     -1.557317   -1.064032   -0.349460
C     -2.533877   -0.182306   -1.147485
C     -2.517895    1.238275   -0.643570
C     -1.700097    2.202833   -1.256831
C     -1.655321    3.508142   -0.757714
C     -2.420474    3.858171    0.358162
C     -3.229282    2.902360    0.979087
C     -3.275966    1.595424    0.484133
N     -0.180114   -0.595162   -0.537288
C      0.813195   -0.702005    0.493907
O      0.565631   -1.359749    1.540814
C      2.128851   -0.051709    0.348105
C      2.493162    0.838243   -0.664115
C      3.791375    1.195709   -0.373316
C      4.662677    2.059988   -1.033089
C      5.948928    2.236330   -0.489366
F      6.829846    3.067253   -1.098712
C      6.326596    1.552786    0.688745
C      5.422054    0.688297    1.332748
C      4.156256    0.533703    0.769206
N      3.149136   -0.230322    1.222352
H     -2.648035   -2.829220    1.878316
H     -3.971981   -2.195711    0.808511
H     -3.997606   -3.896375    1.371472
H     -3.344615   -5.441119   -0.088472
H     -3.030389   -4.771251   -1.727911
H     -1.652491   -5.291919   -0.674845
H     -1.818559   -0.976251    0.725657
H     -3.565504   -0.587793   -1.056264
H     -2.274088   -0.208626   -2.229218
H     -1.094994    1.943663   -2.116692
H     -1.024616    4.247551   -1.234095
H     -2.383696    4.868744    0.743924
H     -3.816817    3.173034    1.846828
H     -3.897830    0.860733    0.980819
H      0.111851   -0.282924   -1.490442
H      1.893137    1.193737   -1.491063
H      4.360884    2.578998   -1.933858
H      7.317468    1.695029    1.100152
H      5.701070    0.162037    2.236420
H      3.155039   -0.834076    2.074907
