55
Lipophilicity 1221 3.0
F      7.453706   -1.013704    1.657631
C      6.303658   -0.632339    2.265854
C      6.336849   -0.157578    3.597138
C      5.152018    0.241828    4.243661
C      3.957986    0.151526    3.530088
N      2.722934    0.478437    3.959308
C      1.902287    0.206259    2.919506
C      0.431636    0.470880    2.877235
C     -0.222793   -0.344623    1.746672
N      0.573164   -0.269961    0.505560
C      1.991408   -0.666819    0.533579
C      2.613224   -0.261224    1.831569
C      3.928977   -0.309316    2.234467
C      5.084242   -0.712580    1.567918
C     -0.090904   -0.252387   -0.769786
O      0.053210   -1.232080   -1.550456
C     -0.918424    0.929366   -1.230962
C     -0.548665    2.232881   -0.496081
C     -1.254161    3.451614   -1.123549
C     -2.634718    3.120573   -1.727384
C     -3.298306    1.929720   -1.023748
C     -2.445167    0.636519   -1.129791
C     -2.891195   -0.217207   -2.294001
O     -3.029829    0.300674   -3.436192
N     -3.103941   -1.624154   -2.114776
C     -3.489258   -2.493016   -3.222717
C     -2.803120   -3.846720   -3.256454
C     -2.403657   -2.759191   -4.250553
C     -4.875303   -2.426170   -3.703631
N     -5.967434   -2.372766   -4.082405
H      7.280083   -0.101314    4.125188
H      5.169062    0.606068    5.262713
H      2.455952    0.863675    4.892889
H     -0.029238    0.199703    3.850835
H      0.271678    1.554815    2.696905
H     -0.303455   -1.408845    2.058432
H     -1.251428    0.036091    1.589712
H      2.539585   -0.170298   -0.296552
H      2.072769   -1.768674    0.416753
H      5.046671   -1.072721    0.547755
H     -0.656114    1.098742   -2.301118
H     -0.852004    2.161502    0.569221
H      0.551576    2.392738   -0.526689
H     -1.370902    4.234948   -0.343132
H     -0.609845    3.877805   -1.923312
H     -3.294943    4.011256   -1.650088
H     -2.519408    2.886285   -2.808099
H     -3.433346    2.191175    0.049527
H     -4.316863    1.769446   -1.441206
H     -2.643926    0.062710   -0.199889
H     -3.026751   -2.039432   -1.158922
H     -2.046705   -4.021884   -2.461581
H     -3.388614   -4.673953   -3.712651
H     -2.756241   -2.949986   -5.286975
H     -1.416018   -2.298291   -4.033378
