66
Lipophilicity 820 4.139999866485596
C     -3.598054   -1.422449    0.085658
C     -3.204581    0.061828    0.031137
O     -2.243221    0.306197   -1.005919
C     -2.359625    0.069849   -2.391125
C     -3.595011   -0.255564   -2.989935
C     -3.671234   -0.570920   -4.345726
C     -2.523352   -0.573143   -5.132019
C     -1.291123   -0.224649   -4.575377
N     -0.180299   -0.243537   -5.356154
C      1.033179    0.093951   -4.857381
N      1.150773    0.488163   -3.566510
C      0.079308    0.529176   -2.728751
N      0.259929    1.071811   -1.412764
C      1.355821    0.724910   -0.547288
C      1.640377    1.539526    0.555981
C      2.685213    1.218463    1.423488
C      3.466064    0.079855    1.204956
O      4.513859   -0.190414    2.094361
C      5.867434   -0.259855    1.733828
C      6.779939   -0.802352    2.643477
C      8.134423   -0.886633    2.316454
C      8.567638   -0.421323    1.069479
C     10.013855   -0.493073    0.697453
N      7.670251    0.125806    0.203666
C      6.347613    0.219020    0.502353
C      3.157784   -0.783132    0.130044
C      3.927179   -2.056181   -0.097775
C      2.113476   -0.443917   -0.747527
C     -1.198582    0.141570   -3.209154
C     -4.391442    0.996452   -0.056864
O     -4.410130    1.884340   -0.951954
N     -5.487884    0.918206    0.876060
C     -5.227227    0.769425    2.318821
C     -6.467157    0.279112    3.104955
O     -7.587271    0.013808    2.282143
C     -7.869572    1.148382    1.496172
C     -6.829892    1.262593    0.385660
H     -2.680024   -2.047515    0.085477
H     -4.229159   -1.723224   -0.770977
H     -4.162727   -1.649866    1.012519
H     -2.684573    0.294047    0.983039
H     -4.513308   -0.266412   -2.424846
H     -4.625747   -0.827591   -4.786971
H     -2.595196   -0.839898   -6.179536
H      1.905124    0.071243   -5.496506
H     -0.374032    1.850128   -1.121890
H      1.053423    2.430678    0.740914
H      2.898342    1.864263    2.265045
H      6.436552   -1.163316    3.604839
H      8.836293   -1.311697    3.024917
H     10.153160   -0.236066   -0.374108
H     10.593548    0.221853    1.317468
H     10.397897   -1.520778    0.867435
H      5.676402    0.663433   -0.219601
H      4.249409   -2.500853    0.866563
H      4.817410   -1.848213   -0.725196
H      3.299097   -2.809893   -0.617598
H      1.876969   -1.108599   -1.568030
H     -4.395868    0.062266    2.501229
H     -4.904901    1.753324    2.723083
H     -6.738138    1.016565    3.894958
H     -6.206510   -0.660368    3.637673
H     -8.875843    1.028210    1.040986
H     -7.898007    2.081852    2.107051
H     -6.836772    2.299250   -0.018475
H     -7.101282    0.561877   -0.434825
