40
Lipophilicity 795 2.549999952316284
C     -2.059873    3.929051    0.144854
C     -2.006325    2.546655   -0.504147
C     -0.823248    1.729052   -0.036903
N     -0.082997    2.092704    1.035188
C      0.875376    1.159571    1.083570
C      1.882427    1.061181    2.037983
N      1.982385    1.990245    3.118463
N      2.775278    0.042698    1.928948
C      2.735313   -0.854291    0.900290
C      3.717477   -1.848428    0.834303
C      3.754417   -2.728788   -0.244629
C      2.826659   -2.604983   -1.276650
C      1.834366   -1.621569   -1.224753
C      1.730925   -0.759620   -0.114035
C      0.746446    0.256613    0.057416
N     -0.386104    0.578278   -0.636241
C     -1.147606   -0.174958   -1.657454
C     -2.019554   -1.323956   -1.078308
C     -3.078002   -0.815678   -0.092925
C     -1.210612   -2.461275   -0.447627
H     -2.925254    4.495707   -0.259095
H     -2.183209    3.835824    1.245054
H     -1.130443    4.495977   -0.077098
H     -2.946640    2.014203   -0.265731
H     -1.942775    2.692094   -1.602989
H      2.744969    1.892024    3.824823
H      1.302589    2.776317    3.220750
H      4.466639   -1.927787    1.612619
H      4.520796   -3.491490   -0.294708
H      2.883862   -3.267750   -2.130788
H      1.198672   -1.551255   -2.077922
H     -1.835299    0.512223   -2.190475
H     -0.504768   -0.523740   -2.477000
H     -2.570751   -1.768375   -1.937003
H     -2.603184   -0.330011    0.785469
H     -3.756318   -0.099454   -0.600636
H     -3.702799   -1.660000    0.269175
H     -1.893963   -3.268948   -0.108453
H     -0.639063   -2.107183    0.433994
H     -0.529808   -2.910879   -1.197329
