30
Lipophilicity 549 2.299999952316284
N      2.394020   -2.538699    1.162333
C      3.264404   -1.738075    0.358930
O      4.361317   -2.226550   -0.024436
C      2.915929   -0.346658   -0.011038
C      3.926349    0.592949   -0.326522
C      3.598100    1.921166   -0.685824
O      4.618674    2.821684   -0.981613
C      2.249535    2.327186   -0.744515
C      1.275222    1.381768   -0.443340
N     -0.058313    1.544264   -0.463567
C     -0.501488    0.306326   -0.116784
O      0.479418   -0.555281    0.098681
C      1.591408    0.102164   -0.096232
C     -1.930664   -0.044567    0.006025
C     -2.308320   -1.347056    0.374387
C     -3.660225   -1.684192    0.492391
C     -4.648854   -0.727138    0.244679
O     -5.991626   -1.077423    0.366138
C     -4.279925    0.573484   -0.122850
C     -2.928878    0.913946   -0.241720
H      1.571949   -2.128057    1.655654
H      2.632492   -3.537573    1.351161
H      4.969507    0.304377   -0.285166
H      4.418972    3.780195   -1.242812
H      1.976893    3.337378   -1.022126
H     -1.559337   -2.104185    0.571362
H     -3.939810   -2.690682    0.776853
H     -6.731414   -0.406769    0.193429
H     -5.038731    1.320972   -0.316504
H     -2.666606    1.925046   -0.526974
