61
Lipophilicity 77 1.690000057220459
C     -5.713388    0.443292   -1.894029
C     -6.014635    1.007769   -0.502857
C     -6.977158    2.201588   -0.568963
N     -6.486559   -0.059586    0.406799
C     -7.724361   -0.619008    0.515775
C     -8.929330   -0.252625   -0.294704
N     -7.794882   -1.556393    1.484387
C     -6.553630   -1.612898    1.995236
C     -5.743802   -0.716022    1.332731
C     -4.289274   -0.565573    1.566510
C     -3.752262   -0.710562    2.852249
C     -2.374285   -0.583623    3.019238
N     -1.580658   -0.337838    1.945856
C     -2.106731   -0.223578    0.696216
N     -1.269508    0.064120   -0.432654
C      0.166180   -0.004304   -0.412439
C      0.908988    0.908634   -1.172539
C      2.305289    0.851226   -1.185930
C      2.987726   -0.135988   -0.452609
C      2.237908   -1.065951    0.290789
C      0.841582   -1.005692    0.304678
N      4.431983   -0.191439   -0.462616
C      5.207179    1.058842   -0.450368
C      6.646360    0.829902    0.022895
N      7.268836   -0.275332   -0.720976
C      6.463130   -1.440014   -1.117671
C      5.124047   -1.484947   -0.374288
C      8.681720   -0.273646   -1.018688
O      9.132269   -1.056150   -1.900324
C      9.631131    0.666919   -0.323868
O     10.943734    0.173829   -0.365763
N     -3.450333   -0.333054    0.521608
H     -5.272118    1.233810   -2.537720
H     -6.633058    0.061448   -2.380375
H     -4.984349   -0.390236   -1.815593
H     -5.069689    1.431085   -0.103397
H     -7.360052    2.443386    0.445235
H     -6.439361    3.093303   -0.956754
H     -7.827147    2.010685   -1.253913
H     -8.680100   -0.202057   -1.372121
H     -9.717139   -1.024816   -0.167513
H     -9.339105    0.716655    0.055871
H     -6.254282   -2.293285    2.781509
H     -4.385083   -0.901369    3.709828
H     -1.934933   -0.677505    4.003293
H     -1.733336    0.428778   -1.295722
H      0.403599    1.673371   -1.749043
H      2.850043    1.570558   -1.782652
H      2.731176   -1.836119    0.869176
H      0.292155   -1.754958    0.858871
H      4.726856    1.793888    0.232129
H      5.226032    1.487340   -1.475533
H      6.652222    0.589719    1.107997
H      7.206372    1.776619   -0.131512
H      7.016390   -2.377452   -0.889752
H      6.278901   -1.398393   -2.213008
H      4.502742   -2.288518   -0.827145
H      5.298834   -1.734004    0.694823
H      9.575115    1.673408   -0.796929
H      9.336131    0.767268    0.741487
H     11.315915    0.425491   -1.251235
