44
Lipophilicity 183 3.380000114440918
C      7.752359   -1.844237    1.631930
O      7.069946   -0.939423    0.769806
C      5.675719   -0.779549    0.727578
C      4.813644   -1.520889    1.556614
C      3.432111   -1.334898    1.486814
C      2.883516   -0.407669    0.591272
C      1.416968   -0.233105    0.538990
N      0.876229    0.638109   -0.261856
N     -0.509655    0.864717   -0.393485
C     -1.438682    0.012353   -0.072347
C     -2.867778    0.352724   -0.232517
C     -3.271148    1.611448   -0.706316
C     -4.626912    1.911581   -0.848826
C     -5.607347    0.957423   -0.519361
O     -6.979689    1.223628   -0.649795
C     -7.521702    2.454615   -1.117261
C     -5.214644   -0.303298   -0.044388
O     -6.215251   -1.234673    0.276510
C     -5.968693   -2.548288    0.767725
C     -3.844264   -0.599268    0.096901
C      3.742236    0.334277   -0.239029
C      5.138120    0.151778   -0.174070
O      6.023406    0.876251   -0.988468
C      5.625775    1.851436   -1.946913
H      7.435562   -2.887069    1.418991
H      8.843947   -1.761374    1.453310
H      7.545584   -1.590174    2.693014
H      5.201623   -2.244981    2.259832
H      2.789428   -1.918007    2.135427
H      0.805396   -0.823068    1.208481
H     -1.182650   -0.975833    0.285668
H     -2.539988    2.366311   -0.967284
H     -4.902450    2.890474   -1.216567
H     -7.177418    2.654269   -2.153991
H     -8.628785    2.386051   -1.117888
H     -7.217469    3.285264   -0.445945
H     -6.938265   -3.060591    0.934456
H     -5.422498   -2.498749    1.733348
H     -5.382679   -3.130030    0.025179
H     -3.531147   -1.568347    0.462567
H      3.323082    1.050130   -0.932617
H      5.087678    2.683148   -1.444990
H      4.977466    1.385974   -2.719092
H      6.529316    2.261560   -2.442629
