64
Lipophilicity 2062 2.8299999237060547
C     -8.978153    0.428258    0.938730
N     -8.649251    1.623941    0.153489
C     -9.740969    2.446778   -0.380668
C     -7.266051    1.979017   -0.102136
C     -6.906300    3.310203   -0.392259
C     -5.577978    3.648325   -0.653312
C     -4.585350    2.669736   -0.629709
C     -4.909145    1.336449   -0.334084
C     -6.251299    0.998037   -0.079397
C     -3.845580    0.305780   -0.340332
O     -2.876376    0.437424   -1.136791
N     -3.914061   -0.838171    0.532491
C     -2.922693   -1.879330    0.568522
C     -3.328709   -3.204171    0.764829
C     -2.388384   -4.233373    0.818165
C     -1.019232   -3.958125    0.675147
C     -0.029597   -5.091023    0.724468
C     -0.593337   -2.620570    0.504368
N      0.807949   -2.303333    0.407419
C      1.327821   -1.319150   -0.503963
O      0.594897   -0.878422   -1.432318
C      2.732156   -0.852143   -0.403263
C      3.364687   -0.277242   -1.520973
C      4.691318    0.155991   -1.442087
C      5.409870    0.030264   -0.238925
O      6.745070    0.441870   -0.113785
C      7.516725    1.005671   -1.169466
C      8.889845    1.323045   -0.666066
C      9.097113    2.402322    0.206183
C     10.386082    2.663798    0.675730
C     11.449124    1.850336    0.277501
C     11.204910    0.781438   -0.586916
N      9.942974    0.540717   -1.033492
C      4.774947   -0.520704    0.878976
C      3.448130   -0.954697    0.803103
C     -1.551147   -1.590973    0.474651
H     -8.343712    0.387148    1.849166
H     -8.811926   -0.481680    0.326657
H    -10.038144    0.436921    1.269287
H     -9.566252    2.653116   -1.458500
H     -9.802485    3.404055    0.179654
H    -10.720681    1.930196   -0.292815
H     -7.646244    4.097960   -0.414577
H     -5.317266    4.675125   -0.877595
H     -3.561104    2.956309   -0.835708
H     -6.513323   -0.036063    0.088096
H     -4.761710   -0.969308    1.127956
H     -4.380497   -3.440282    0.867028
H     -2.732144   -5.249857    0.966050
H     -0.534321   -6.077250    0.639417
H      0.524221   -5.059475    1.686808
H      0.689117   -5.007254   -0.118427
H      1.487619   -2.896600    0.932591
H      2.837018   -0.172985   -2.461948
H      5.148230    0.586589   -2.323660
H      7.034142    1.937573   -1.535216
H      7.583140    0.282435   -2.010390
H      8.270064    3.028836    0.517731
H     10.560631    3.493887    1.347507
H     12.451715    2.044635    0.634344
H     12.018402    0.141655   -0.902700
H      5.311753   -0.609562    1.813984
H      2.983938   -1.351803    1.695600
H     -1.220188   -0.562297    0.420544
