58
Lipophilicity 567 2.680000066757202
C      0.018356    0.059133    6.236208
O      0.498835   -0.090920    4.904106
C     -0.217566    0.266111    3.749218
C     -1.509874    0.816717    3.827250
C     -2.209672    1.159934    2.669152
N     -3.451278    1.697388    2.773663
C     -4.172432    2.063761    1.685439
C     -3.653102    1.892597    0.393386
C     -4.474750    2.278744   -0.781107
O     -4.404856    1.611519   -1.848010
N     -5.360898    3.398907   -0.721717
C     -2.368521    1.318754    0.246625
N     -1.794226    1.184295   -1.065115
C     -1.575804   -0.081515   -1.719642
C     -1.932062   -1.298622   -1.104860
C     -1.689870   -2.514514   -1.750172
C     -1.102254   -2.531489   -3.016811
F     -0.865577   -3.712506   -3.639055
C     -0.761626   -1.331157   -3.643713
C     -0.997443   -0.110914   -3.002394
F     -0.644866    1.041226   -3.626329
C     -1.629616    0.959163    1.400387
C     -0.331307    0.422767    1.323291
C      0.378114    0.061664    2.487179
N      1.699045   -0.520308    2.408934
C      2.328045   -0.979093    1.169770
C      3.004161    0.200926    0.440686
N      3.416928   -0.095183   -0.948847
C      2.287768   -0.117500   -1.898684
C      2.753295   -0.597715   -3.286728
O      4.157602   -0.487260   -3.410099
C      4.795033   -1.395507   -2.525925
C      4.255245   -1.297776   -1.082536
H     -0.184418    1.129612    6.450909
H      0.792216   -0.303765    6.943151
H     -0.903761   -0.542709    6.379801
H     -1.982052    0.983061    4.786468
H     -5.164728    2.468259    1.834160
H     -5.372423    4.039456    0.102224
H     -5.967266    3.629880   -1.539785
H     -1.656227    2.064495   -1.611083
H     -2.394982   -1.315079   -0.127514
H     -1.959954   -3.444509   -1.266588
H     -0.306490   -1.345662   -4.625762
H      0.127434    0.288507    0.357422
H      2.215721   -0.728107    3.292958
H      3.106710   -1.729422    1.427239
H      1.578655   -1.501521    0.542403
H      3.902442    0.502556    1.021895
H      2.335136    1.088293    0.442548
H      1.874440    0.910651   -1.989968
H      1.473771   -0.784894   -1.548402
H      2.275403    0.026510   -4.071288
H      2.423968   -1.647466   -3.466683
H      4.693231   -2.435738   -2.908308
H      5.880308   -1.159251   -2.519563
H      5.107584   -1.252501   -0.369081
H      3.660457   -2.212285   -0.861733
