16
Lipophilicity 32 1.0
C      1.957164    1.048998    0.020698
C      2.237345   -0.314532   -0.123295
C      1.194736   -1.246318   -0.170533
C     -0.133151   -0.814524   -0.073559
N     -1.152392   -1.712046   -0.118437
C     -2.445436   -1.304432   -0.025253
N     -2.738158    0.015586    0.115038
C     -1.754784    0.951842    0.165163
C     -0.415940    0.559262    0.071540
C      0.632715    1.489099    0.118335
H      2.767760    1.765323    0.056636
H      3.263874   -0.649298   -0.198354
H      1.420664   -2.299598   -0.282158
H     -3.243958   -2.032493   -0.062830
H     -2.019670    1.995758    0.277496
H      0.429232    2.547371    0.229513
