28
Lipophilicity 720 2.5399999618530273
O     -2.100174    2.889626    0.420007
C     -1.516871    1.633063    0.250200
C     -0.123598    1.493997    0.314146
C      0.472072    0.226307    0.143278
N     -0.339324   -0.845968   -0.083143
C     -1.692271   -0.748363   -0.151372
C     -2.463768   -1.892180   -0.387036
C     -3.856190   -1.795005   -0.457798
C     -4.482473   -0.556280   -0.293593
C     -3.720082    0.592243   -0.057715
C     -2.318239    0.505269    0.015297
C      1.953623    0.006795    0.199519
C      2.468384   -1.296192    0.017868
C      3.844114   -1.538456    0.063791
C      4.733111   -0.489227    0.291222
C      4.248200    0.805218    0.473328
C      2.873124    1.056744    0.428969
H     -1.541375    3.717574    0.590623
H      0.461018    2.380802    0.496028
H     -1.986710   -2.856023   -0.515440
H     -4.450829   -2.680803   -0.640126
H     -5.561138   -0.485969   -0.349224
H     -4.227576    1.540860    0.066297
H      1.810219   -2.136738   -0.160960
H      4.220847   -2.543349   -0.077569
H      5.798120   -0.679106    0.326393
H      4.940283    1.618717    0.649839
H      2.557502    2.076448    0.576550
