47
Lipophilicity 497 3.5999999046325684
F     -2.801151   -3.653881    0.914625
C     -3.850558   -2.766197    1.079310
F     -4.337233   -2.878572    2.368170
F     -4.851311   -3.111880    0.187612
C     -3.392520   -1.348153    0.843799
C     -2.078125   -0.965763    1.157562
C     -1.654985    0.356971    0.965231
C     -0.223229    0.746402    1.225193
O      0.457716    1.005102    0.011671
C      0.821181   -0.194428   -0.660808
C      0.010498   -0.302108   -1.973783
C      0.746387    0.289571   -3.189595
C      1.690256    1.423707   -2.771672
N      2.729129    0.979539   -1.819147
C      2.336408   -0.176097   -0.976089
C      3.178782   -0.270114    0.289866
C      3.241346    0.791104    1.216490
C      3.998533    0.669359    2.385217
C      4.698182   -0.509675    2.647957
C      4.639817   -1.571446    1.743536
C      3.883337   -1.456122    0.573518
C     -2.558771    1.308727    0.473555
C     -3.892719    0.958589    0.209455
C     -4.297769   -0.375708    0.385146
C     -4.850970    1.979311   -0.352128
F     -4.772441    1.965321   -1.732111
F     -4.537717    3.247986    0.104456
F     -6.150534    1.692577    0.028692
H     -1.378224   -1.699028    1.539594
H      0.310671   -0.005988    1.850756
H     -0.219945    1.681253    1.824506
H      0.615822   -1.119218   -0.067642
H     -0.968437    0.210649   -1.852611
H     -0.212570   -1.371096   -2.184405
H      1.340025   -0.505932   -3.691386
H      0.005576    0.671173   -3.925126
H      2.189456    1.827548   -3.677784
H      1.089263    2.249360   -2.327301
H      2.987802    1.804930   -1.231899
H      2.542775   -1.089139   -1.579597
H      2.703569    1.713563    1.044572
H      4.040387    1.490102    3.089619
H      5.283060   -0.601717    3.553984
H      5.178920   -2.486948    1.950379
H      3.846933   -2.296346   -0.108558
H     -2.217783    2.321838    0.296398
H     -5.318842   -0.658832    0.160773
