23
Lipophilicity 1635 0.9200000166893005
C      4.762631    0.869193   -0.743432
O      3.405386    0.508593   -0.969626
C      2.763879   -0.499481   -0.244513
O      3.370860   -1.121618    0.669543
C      1.330623   -0.804391   -0.521427
O      0.510009    0.009805    0.310742
C     -0.892483   -0.013890    0.307795
C     -1.632621   -0.864314   -0.537206
C     -3.030650   -0.849304   -0.501360
C     -3.703945    0.009436    0.372982
O     -5.096737    0.013295    0.397521
C     -2.971817    0.856739    1.214968
C     -1.574158    0.843264    1.180671
H      5.423934   -0.003620   -0.928896
H      4.892844    1.223746    0.301013
H      5.043240    1.687070   -1.438304
H      1.112170   -0.592098   -1.590141
H      1.132019   -1.878479   -0.314325
H     -1.138755   -1.538655   -1.223292
H     -3.591651   -1.506084   -1.154118
H     -5.613546    0.623794    1.019688
H     -3.483898    1.525177    1.895364
H     -1.017332    1.501823    1.835241
