26
Lipophilicity 1117 3.299999952316284
O      5.796423    0.048101    0.452476
C      4.406313    0.054240    0.362733
C      3.646308    0.968710    1.103565
C      2.251401    0.965787    1.005623
C      1.600417    0.046560    0.164162
C      2.369496   -0.867641   -0.575811
C      3.764219   -0.862050   -0.475570
C      0.127418    0.036923    0.055061
O     -0.539382   -0.805038   -0.720490
C     -1.801480   -0.516430   -0.556595
C     -2.917019   -1.105817   -1.143865
C     -4.184129   -0.599733   -0.791774
O     -5.326254   -1.161580   -1.356993
C     -4.290514    0.472762    0.130758
C     -3.135559    1.040985    0.702370
C     -1.903297    0.512125    0.328156
N     -0.681995    0.890820    0.739997
H      6.291178    0.699285    1.050867
H      4.135065    1.681797    1.755219
H      1.684135    1.681525    1.587345
H      1.893375   -1.586229   -1.231359
H      4.346752   -1.570908   -1.050278
H     -2.812166   -1.923281   -1.845422
H     -6.252416   -0.821755   -1.125729
H     -5.263878    0.861420    0.401127
H     -3.204411    1.859423    1.407190
