78
Lipophilicity 935 3.299999952316284
C     -3.980807   -0.936827    1.797530
C     -2.584764   -1.070775    1.172629
C     -2.017078    0.299007    0.770606
N     -2.960257    1.073668   -0.054114
C     -2.359236    2.351293   -0.499729
C     -3.302507    3.208594   -1.385579
C     -4.726917    3.374683   -0.867733
C     -4.471657    2.568100   -2.133089
C     -1.932187    3.208548    0.674995
O     -2.766434    3.464794    1.590934
N     -0.611869    3.775406    0.744914
C     -0.489179    5.197754    1.088789
C      0.579312    2.919437    0.558921
C      1.694803    3.268905    1.551453
C      1.065063    2.996820   -0.867434
O      1.101349    4.116581   -1.450574
N      1.400437    1.818360   -1.618885
C      2.228362    0.716042   -1.100628
C      3.693767    1.198161   -0.986026
C      4.588390    0.182519   -0.316789
C      4.649836    0.106284    1.085368
C      5.436873   -0.868134    1.706385
C      6.175679   -1.768501    0.933509
F      6.935765   -2.715440    1.535421
C      6.124926   -1.698210   -0.462194
C      5.334788   -0.727704   -1.086928
C      2.150547   -0.473859   -2.047021
O      2.155429   -0.254992   -3.290040
N      2.198630   -1.844609   -1.610215
C      2.127258   -2.332078   -0.230716
C      0.682099   -2.590889    0.222639
C     -0.171809   -3.288230   -0.847402
C     -1.350948   -4.018144   -0.245835
C     -1.280017   -5.411092   -0.062003
C     -2.360976   -6.113786    0.471446
C     -3.528672   -5.436819    0.821070
C     -3.610056   -4.054040    0.657659
C     -2.519228   -3.331343    0.151736
O     -2.594523   -1.937812    0.034119
H     -4.010874   -0.072088    2.492437
H     -4.748473   -0.790071    1.008214
H     -4.228170   -1.840223    2.390230
H     -1.895885   -1.493936    1.942278
H     -1.781488    0.850161    1.707154
H     -1.070568    0.146239    0.208978
H     -3.117175    0.496505   -0.912911
H     -1.477069    2.126550   -1.137493
H     -2.891141    4.128731   -1.849876
H     -5.171568    4.374880   -1.053782
H     -5.014297    2.755064    0.008640
H     -4.792604    3.105036   -3.050624
H     -4.704113    1.495289   -1.991890
H      0.373174    5.658523    0.565906
H     -0.361160    5.306405    2.188474
H     -1.400990    5.754293    0.776564
H      0.296624    1.872424    0.779021
H      1.284673    3.308748    2.580079
H      2.177665    4.239586    1.311124
H      2.474514    2.483177    1.538249
H      1.274210    1.901034   -2.654871
H      1.847144    0.425825   -0.100615
H      3.738455    2.147746   -0.412347
H      4.086652    1.439141   -1.997341
H      4.075508    0.789103    1.698235
H      5.465084   -0.928627    2.787446
H      6.693752   -2.399141   -1.060771
H      5.294432   -0.691793   -2.168232
H      2.298666   -2.573163   -2.356778
H      2.625515   -1.633391    0.468881
H      2.688843   -3.291508   -0.167997
H      0.718242   -3.212071    1.146340
H      0.216823   -1.629158    0.498308
H      0.454571   -4.009872   -1.412674
H     -0.532815   -2.535222   -1.576959
H     -0.387688   -5.955850   -0.337763
H     -2.297376   -7.184666    0.602633
H     -4.372033   -5.983092    1.217431
H     -4.533256   -3.552257    0.908384
