29
Lipophilicity 634 1.5499999523162842
C     -3.958795    1.486122   -0.182812
C     -3.252235    0.140442    0.000796
C     -3.813328   -0.612477    1.212101
C     -1.765574    0.347103    0.137663
O     -1.300515    0.851117    1.196958
N     -0.896351    0.050004   -0.966947
C      0.536959   -0.008170   -0.869912
C      1.320372    0.349084   -1.995535
C      2.723834    0.282746   -1.948739
C      3.318818   -0.155041   -0.769232
C      4.722565   -0.346497   -0.422191
O      5.704899   -0.116766   -1.175255
N      4.838198   -0.842965    0.910143
C      3.491366   -0.952484    1.367486
O      3.168456   -1.364694    2.512337
C      2.567067   -0.523178    0.323710
C      1.175089   -0.469924    0.305803
H     -3.560320    2.006234   -1.080310
H     -3.806419    2.135805    0.706072
H     -5.048809    1.328640   -0.328689
H     -3.450819   -0.479600   -0.901064
H     -3.684660   -0.018905    2.142901
H     -4.895846   -0.815428    1.066481
H     -3.290776   -1.585877    1.331017
H     -1.327412   -0.050038   -1.913893
H      0.838802    0.685329   -2.905062
H      3.322694    0.559695   -2.806580
H      5.711631   -1.078302    1.431316
H      0.611109   -0.801974    1.166981
