45
Lipophilicity 300 1.9199999570846558
N     -6.280335    3.076904   -0.250024
C     -4.944588    2.566741   -0.216838
O     -3.996186    3.361438    0.024959
C     -4.657581    1.128792   -0.444377
C     -5.549666    0.315636   -1.165961
C     -5.264062   -1.035197   -1.373098
C     -4.085041   -1.588677   -0.872644
C     -3.172796   -0.798341   -0.166559
O     -1.999876   -1.410036    0.306324
C     -0.895689   -0.741077    0.922891
C      0.012387   -1.792755    1.590992
C      1.096133   -2.285438    0.622088
N      1.997162   -1.192729    0.165848
C      3.275524   -1.201331    0.909186
C      4.291618   -0.304898    0.248098
C      4.662870    0.913894    0.840627
C      5.587019    1.751110    0.207742
C      6.142286    1.380496   -1.020173
C      5.772637    0.172788   -1.618635
C      4.848647   -0.667184   -0.989349
C      1.368844    0.154662    0.190266
C     -0.128778    0.093689   -0.129443
C     -3.465373    0.563644    0.047367
H     -7.109523    2.445145   -0.288766
H     -6.448099    4.102164   -0.144925
H     -6.457341    0.720788   -1.591913
H     -5.956056   -1.653969   -1.929847
H     -3.873740   -2.637050   -1.041594
H     -1.269607   -0.076838    1.732621
H     -0.595247   -2.654311    1.944314
H      0.506477   -1.349248    2.483456
H      1.655976   -3.117911    1.103477
H      0.602450   -2.728296   -0.269892
H      3.112089   -0.910234    1.971661
H      3.706581   -2.227112    0.919261
H      4.234896    1.217563    1.787881
H      5.870817    2.688650    0.668107
H      6.856690    2.030181   -1.509023
H      6.200237   -0.111428   -2.571435
H      4.564583   -1.597592   -1.465481
H      1.498378    0.643405    1.183150
H      1.861592    0.797652   -0.570575
H     -0.536106    1.126232   -0.165819
H     -0.256272   -0.355478   -1.139207
H     -2.783930    1.185554    0.608874
