65
Lipophilicity 1727 1.0
C     -5.292262   -1.124236    1.788157
C     -4.106753   -2.088416    1.600954
C     -4.063057   -2.572498    0.138999
N     -4.316173   -3.255460    2.472529
C     -2.804970   -1.374790    1.945533
O     -2.048729   -1.838969    2.843017
N     -2.427847   -0.175681    1.248370
C     -1.181282    0.546998    1.533498
C     -1.345406    2.067243    1.311113
C     -1.834718    2.423228   -0.068495
C     -1.083308    2.440261   -1.241560
N     -1.865598    2.744466   -2.300920
C     -3.104253    2.922255   -1.808634
C     -4.251722    3.282162   -2.517054
C     -5.445635    3.459228   -1.791584
C     -5.468293    3.263942   -0.392550
C     -4.297326    2.892959    0.294861
C     -3.125905    2.735619   -0.449685
C     -0.043543   -0.002763    0.711830
O     -0.271708   -0.529474   -0.411259
N      1.304119    0.144238    1.178095
C      2.457400   -0.142251    0.321950
C      3.761684   -0.027339    1.130875
C      4.973245   -0.234988    0.268534
C      5.795378    0.760717   -0.251397
N      6.757642    0.219571   -1.032742
C      6.542021   -1.107324   -1.020592
C      7.269752   -2.086271   -1.695713
C      6.860451   -3.425221   -1.553352
C      5.743021   -3.751076   -0.751203
C      5.027345   -2.741417   -0.080778
C      5.458928   -1.423971   -0.239348
N      2.473387    0.804671   -0.796981
C      2.564922    0.397479   -2.165255
O      2.667826   -0.818728   -2.478456
H     -5.219613   -0.251500    1.107419
H     -5.323528   -0.749440    2.833377
H     -6.249469   -1.645966    1.577489
H     -4.019178   -1.720391   -0.572480
H     -4.970848   -3.168702   -0.094883
H     -3.171759   -3.214775   -0.029316
H     -3.525778   -3.930982    2.355300
H     -4.324031   -2.953927    3.474648
H     -2.998785    0.113884    0.426919
H     -0.925642    0.412350    2.607855
H     -2.054133    2.465882    2.070146
H     -0.372844    2.578260    1.488799
H     -0.023989    2.243403   -1.315127
H     -1.562863    2.839060   -3.296490
H     -4.225513    3.433273   -3.588087
H     -6.351693    3.754014   -2.307863
H     -6.390683    3.410177    0.157228
H     -4.312577    2.746976    1.367181
H      1.455694    0.524080    2.139672
H      2.367537   -1.187261   -0.046664
H      3.761939   -0.785905    1.943110
H      3.820963    0.976867    1.605067
H      5.686810    1.823228   -0.076139
H      7.508174    0.732305   -1.546380
H      8.123365   -1.825257   -2.310066
H      7.405843   -4.209791   -2.062622
H      5.435679   -4.783293   -0.651825
H      4.171394   -2.984011    0.536989
H      2.453564    1.828875   -0.588328
H      2.553333    1.144401   -2.945686
