65
Lipophilicity 454 3.8499999046325684
C     -2.538298   -5.960235   -3.037604
O     -3.380746   -4.903253   -2.590583
C     -2.922117   -3.677469   -2.077495
C     -1.548638   -3.401384   -1.937147
C     -1.129738   -2.161992   -1.429979
N     -2.060892   -1.239568   -1.072439
C     -3.395948   -1.463428   -1.182804
C     -4.312621   -0.462652   -0.809101
C     -5.686219   -0.695254   -0.957882
C     -6.147881   -1.914260   -1.459908
F     -7.480628   -2.130602   -1.587031
C     -5.242292   -2.912349   -1.828080
C     -3.859043   -2.696956   -1.697306
N     -3.859361    0.800671   -0.294551
C     -3.047423    0.848603    0.928036
C     -3.361914    2.102439    1.775701
N     -4.026010    3.183000    1.009681
C     -3.838816    4.478647    1.679299
C     -3.540336    3.243825   -0.378426
C     -4.026946    2.001436   -1.121731
C      0.305021   -1.841939   -1.266150
O      1.178271   -2.708604   -1.546200
N      0.704717   -0.532931   -0.823192
C      2.006632   -0.216993   -0.299097
C      2.504118    1.086793   -0.439624
C      3.749818    1.432550    0.091218
C      4.520491    0.480350    0.779874
C      4.010279   -0.818267    0.944785
C      2.763312   -1.163259    0.415269
N      5.799234    0.844315    1.336408
C      6.817365    1.497271    0.501993
C      7.617644    2.546436    1.310619
O      7.363766    2.511004    2.706503
C      7.399710    1.180095    3.175179
C      6.143469    0.444389    2.705973
H     -1.908454   -6.326893   -2.200382
H     -3.169108   -6.798948   -3.396944
H     -1.899958   -5.610506   -3.876293
H     -0.810074   -4.138166   -2.222668
H     -6.398383    0.068398   -0.671110
H     -5.626951   -3.847372   -2.217278
H     -3.215276   -0.064370    1.542690
H     -1.973181    0.868462    0.640626
H     -4.037237    1.804556    2.607109
H     -2.408673    2.458604    2.231274
H     -4.443257    5.258851    1.168996
H     -4.192056    4.421976    2.731715
H     -2.769135    4.784523    1.674160
H     -2.426940    3.293850   -0.405800
H     -3.943638    4.141920   -0.897887
H     -5.104016    2.132821   -1.363695
H     -3.462312    1.885993   -2.072130
H      0.030491    0.256166   -0.949137
H      1.923632    1.838088   -0.961967
H      4.100724    2.451359   -0.015884
H      4.576492   -1.569790    1.478848
H      2.384879   -2.161168    0.589266
H      7.515648    0.716799    0.128906
H      6.363899    1.980417   -0.389384
H      7.346795    3.560544    0.942628
H      8.708380    2.420063    1.123258
H      7.424171    1.189314    4.285420
H      8.319023    0.650629    2.831184
H      6.315407   -0.651420    2.757939
H      5.301126    0.709228    3.382334
