33
Lipophilicity 1990 3.799999952316284
C      5.215389    1.571264   -2.215915
O      3.868063    1.308084   -1.837871
C      3.491757    0.463829   -0.782457
C      4.433472   -0.212597    0.013924
C      4.006861   -1.041717    1.052634
C      2.643820   -1.206082    1.309044
C      1.685809   -0.538419    0.524103
C      2.126357    0.295285   -0.520683
C      0.232609   -0.698094    0.778295
C     -0.365773   -1.471650    1.754763
N     -1.695938   -1.337092    1.641635
C     -1.888150   -0.490700    0.606677
N     -0.724637   -0.080464    0.055408
C     -3.215725   -0.045358    0.110804
C     -4.412687   -0.493206    0.704577
C     -5.650407   -0.059120    0.219007
C     -5.710924    0.823728   -0.860612
C     -4.533223    1.275283   -1.458285
C     -3.292776    0.845094   -0.977780
H      5.220300    2.270086   -3.077295
H      5.717757    0.628678   -2.519855
H      5.763505    2.042258   -1.372732
H      5.495107   -0.104569   -0.161229
H      4.736069   -1.559780    1.662304
H      2.349335   -1.855600    2.121176
H      1.410010    0.821005   -1.140152
H      0.118198   -2.090311    2.497709
H     -2.407731   -1.803304    2.244509
H     -4.406130   -1.176225    1.541080
H     -6.564657   -0.408521    0.681361
H     -6.670353    1.157794   -1.233967
H     -4.580757    1.959828   -2.295391
H     -2.394550    1.210594   -1.459530
