25
Lipophilicity 65 2.200000047683716
O      0.044532    1.720603    0.073837
C      0.393566    0.515333   -0.055340
N     -0.604289   -0.523770   -0.070863
C     -2.019833   -0.280882   -0.081204
C     -2.580523    0.788170   -0.802364
C     -3.966172    0.962038   -0.805323
C     -4.780912    0.069004   -0.108724
C     -4.194606   -0.996482    0.576149
N     -2.843386   -1.149371    0.569282
C      1.837421    0.198806   -0.179765
C      2.367545   -1.019594    0.287800
C      3.733893   -1.291096    0.162707
C      4.585844   -0.351840   -0.421847
C      4.074745    0.865035   -0.877003
C      2.709989    1.142640   -0.753635
H     -0.306602   -1.521551   -0.011313
H     -1.963037    1.461984   -1.380600
H     -4.408542    1.781933   -1.356346
H     -5.855905    0.194661   -0.108502
H     -4.813532   -1.704412    1.110949
H      1.742723   -1.753319    0.777234
H      4.133902   -2.228558    0.527163
H      5.642882   -0.564489   -0.516444
H      4.736332    1.594465   -1.326236
H      2.333966    2.090693   -1.118296
