42
Lipophilicity 1064 1.850000023841858
N     -0.906354    2.819787   -2.076947
C     -0.216192    1.787111   -1.356034
C     -0.935546    0.835363   -0.620817
C     -2.354391    0.649749   -0.382243
O     -3.281275    1.367074   -0.842373
N     -2.558652   -0.470680    0.484767
C     -1.250749   -1.029100    0.833256
C     -0.295048   -0.141584    0.098839
N      1.053999   -0.223951    0.133867
C      1.828852    0.661263   -0.559312
C      3.242012    0.547779   -0.524223
C      4.012452    1.436512   -1.293669
C      3.407734    2.418061   -2.074307
C      2.021390    2.546190   -2.104149
C      1.205852    1.687249   -1.343260
C      3.938616   -0.483175    0.296005
N      3.318423   -1.065203    1.360271
C      3.947597   -1.996754    2.122373
C      5.255862   -2.370156    1.823153
C      5.885039   -1.765543    0.737207
N      5.220596   -0.838421   -0.000199
C     -3.829842   -1.014270    0.982170
C     -4.739395    0.038674    1.606974
C     -5.766439   -0.208443    0.507267
C     -4.857881   -1.262030   -0.117018
H     -0.454595    3.728280   -2.314283
H     -1.913523    2.724994   -2.327040
H     -1.081279   -0.963706    1.928956
H     -1.167449   -2.076282    0.472849
H      5.093814    1.379014   -1.289359
H      4.021393    3.086543   -2.664813
H      1.609016    3.309116   -2.746400
H      3.431570   -2.445345    2.960635
H      5.771541   -3.110461    2.420918
H      6.901618   -2.031326    0.480051
H     -3.684831   -1.899918    1.640710
H     -4.326485    1.070402    1.588565
H     -5.113024   -0.269257    2.607920
H     -5.909735    0.676365   -0.150443
H     -6.714361   -0.639347    0.897517
H     -4.513964   -0.985833   -1.137205
H     -5.296365   -2.282231   -0.060179
