31
Lipophilicity 1746 2.450000047683716
O      6.103945   -0.438733   -0.130876
C      4.742109   -0.228176    0.074380
C      4.321384    0.554645    1.148596
C      2.961752    0.801726    1.374840
O      2.651400    1.681708    2.415746
C      1.985028    0.186365    0.535842
C      0.585492    0.261218    0.745544
O      0.109314    0.805924    1.776598
C     -0.293564   -0.334128   -0.180138
C      0.253445   -1.041547   -1.256729
O      1.565797   -1.150307   -1.401041
C      2.432765   -0.589141   -0.566755
C      3.797985   -0.785084   -0.789534
C     -1.768766   -0.246056   -0.029201
C     -2.564054   -1.399073   -0.143347
C     -3.952454   -1.316790   -0.008829
C     -4.565936   -0.081385    0.236090
O     -5.950366    0.004746    0.371544
C     -3.783826    1.075252    0.344268
O     -4.397536    2.303761    0.582421
C     -2.390352    0.992190    0.210253
H      6.442990   -0.999920   -0.903577
H      5.061819    1.005063    1.798365
H      1.776362    2.175701    2.506708
H     -0.391860   -1.511880   -1.987700
H      4.124088   -1.384760   -1.630569
H     -2.108866   -2.365204   -0.323373
H     -4.551053   -2.214841   -0.093692
H     -6.542099   -0.814591    0.297779
H     -3.859149    3.158248    0.665424
H     -1.795795    1.895071    0.277688
