59
Lipophilicity 1995 4.0
C     -8.358400    3.528462   -0.795900
N     -7.759674    2.327205   -0.221181
C     -6.351884    2.053474   -0.355254
N     -5.624519    2.799227   -1.231344
C     -4.303027    2.582459   -1.435173
N     -3.665092    1.597163   -0.761348
C     -4.319216    0.813716    0.138560
C     -3.622593   -0.202532    0.829126
C     -2.162606   -0.484093    0.561252
N     -2.016722   -1.511714   -0.472839
C     -0.749275   -2.124010   -0.805341
C      0.461866   -1.497569   -0.445044
C      1.699919   -2.065843   -0.786464
N      2.937692   -1.434082   -0.415935
C      3.164725   -0.013914   -0.512898
O      2.280387    0.726541   -1.024005
C      4.425273    0.607309   -0.032517
C      4.424075    1.959040    0.373626
C      5.602852    2.576871    0.804815
C      6.797144    1.855567    0.826786
O      7.994203    2.465372    1.218475
C      9.254602    1.835764    0.972451
C      9.147129    0.322562    1.209184
O      8.012269   -0.207689    0.516553
C      6.809929    0.506039    0.448211
C      5.637050   -0.112403    0.001644
C      1.729233   -3.296340   -1.451289
C      0.542457   -3.933901   -1.812647
C     -0.701790   -3.360598   -1.501121
C     -1.960460   -4.085123   -1.902192
C     -4.318118   -1.022828    1.732204
C     -5.672943   -0.811676    1.982492
C     -6.362731    0.207247    1.320240
C     -5.703152    1.023081    0.375191
H     -8.221862    3.530991   -1.899194
H     -7.880956    4.433963   -0.359184
H     -9.446007    3.554111   -0.570296
H     -8.402350    1.667179    0.265152
H     -3.759125    3.190842   -2.146764
H     -1.640468    0.443858    0.244635
H     -1.678196   -0.833376    1.499024
H     -2.881846   -1.838503   -0.960940
H      0.448999   -0.572061    0.113757
H      3.716814   -2.061317   -0.124278
H      3.508633    2.537945    0.361247
H      5.589637    3.617686    1.104998
H      9.549180    2.018578   -0.084038
H     10.026103    2.275175    1.639315
H      9.028355    0.130455    2.299175
H     10.068487   -0.187401    0.856651
H      5.693256   -1.140303   -0.331385
H      2.677630   -3.754800   -1.700429
H      0.597763   -4.881206   -2.335704
H     -1.741204   -5.084645   -2.334356
H     -2.608499   -4.236164   -1.013883
H     -2.507749   -3.493114   -2.665926
H     -3.806684   -1.827946    2.247943
H     -6.193909   -1.444899    2.692871
H     -7.404603    0.332164    1.566142
