19
Lipophilicity 101 1.7000000476837158
N      3.385987    0.908681   -0.287962
C      2.079478    0.345319   -0.169885
C      1.908856   -1.044280   -0.111364
C      0.623112   -1.577036    0.004130
C     -0.483132   -0.720352    0.060433
C     -1.788596   -1.220889    0.176380
C     -2.872415   -0.338196    0.230122
C     -2.659467    1.043001    0.168645
C     -1.361277    1.550349    0.053030
C     -0.270292    0.675316   -0.001508
N      0.993997    1.164626   -0.113944
H      4.232364    0.298324   -0.332516
H      3.509754    1.944558   -0.331334
H      2.764162   -1.706754   -0.154891
H      0.494136   -2.651838    0.049164
H     -1.969309   -2.288034    0.225114
H     -3.879296   -0.725086    0.319579
H     -3.501994    1.721126    0.210687
H     -1.206069    2.621165    0.006122
