57
Lipophilicity 93 2.809999942779541
C      6.817499    1.760652    1.955347
O      6.241126    0.956236    0.931983
C      4.871859    0.922392    0.627492
C      3.926499    1.696733    1.322988
C      2.575063    1.629202    0.981414
C      2.144844    0.791994   -0.056748
N      0.745486    0.738244   -0.391563
C     -0.164001    0.066174    0.565141
C     -1.495274    0.776218    0.686614
O     -1.546857    1.851172    1.344460
N     -2.682465    0.270979    0.050881
C     -3.993508    0.893190    0.260448
C     -5.062660    0.289712   -0.640989
C     -6.369040    0.529212    0.094628
C     -6.021474    0.536965    1.580803
C     -4.502297    0.665890    1.682140
C     -0.307681   -1.426226    0.294633
C     -0.194052   -1.965586   -1.003520
C     -0.357714   -3.336116   -1.221577
C     -0.652514   -4.185664   -0.155181
C     -0.791082   -3.665519    1.131972
C     -0.626828   -2.295538    1.359493
F     -0.788993   -1.816437    2.619292
C      0.289563    1.336715   -1.630612
O     -0.858107    1.076464   -2.081723
C      1.174775    2.252633   -2.422623
C      3.079758    0.010293   -0.759107
O      2.621825   -0.825187   -1.789728
C      3.449817   -1.690479   -2.558966
C      4.442207    0.084495   -0.408115
H      7.913640    1.591518    1.975590
H      6.627703    2.834837    1.749141
H      6.395610    1.480375    2.943256
H      4.225732    2.354499    2.127604
H      1.858030    2.235035    1.521380
H      0.297079    0.151915    1.575502
H     -2.602548   -0.535467   -0.608362
H     -3.929062    1.985687    0.054368
H     -5.065887    0.768412   -1.644411
H     -4.909495   -0.807368   -0.754485
H     -7.113900   -0.261266   -0.144299
H     -6.783562    1.519045   -0.199352
H     -6.523152    1.388546    2.090627
H     -6.356406   -0.411442    2.056117
H     -4.217679    1.514062    2.342574
H     -4.077279   -0.273517    2.102130
H      0.018425   -1.339252   -1.855289
H     -0.260279   -3.739170   -2.221307
H     -0.781362   -5.246426   -0.327523
H     -1.031575   -4.325449    1.955462
H      0.577710    2.821590   -3.166279
H      1.942938    1.658955   -2.960140
H      1.673502    2.978161   -1.746695
H      4.211581   -1.099937   -3.110445
H      3.943510   -2.433257   -1.897580
H      2.820523   -2.232662   -3.293570
H      5.180430   -0.506232   -0.933293
