50
Lipophilicity 264 0.6299999952316284
N     -7.830000    0.537089   -2.668054
C     -7.366589    1.482653   -1.704188
O     -7.964237    1.592372   -0.600506
C     -6.195500    2.368891   -2.006295
O     -5.265194    2.362572   -0.923461
C     -4.433627    1.285522   -0.575007
C     -4.391124    0.087719   -1.313072
C     -3.543986   -0.952213   -0.919687
C     -2.724117   -0.818616    0.206354
O     -1.894258   -1.897985    0.552488
C     -0.917975   -1.895331    1.594465
C      0.325478   -1.112046    1.167791
N      1.314304   -1.102746    2.257242
C      2.286268   -2.207252    2.152255
C      3.458587   -1.887283    1.197458
O      4.056342   -3.094975    0.800921
C      4.516212   -0.998313    1.881109
O      5.535339   -0.619090    0.955349
C      5.397554    0.345950   -0.056153
C      4.242707    1.142832   -0.199549
C      4.162919    2.087391   -1.227837
C      5.228645    2.248941   -2.116459
C      6.377412    1.466545   -1.977937
C      6.460985    0.520765   -0.951540
C     -2.768492    0.378894    0.945790
C     -3.615865    1.418769    0.552335
H     -8.650287   -0.072563   -2.454507
H     -7.357027    0.440518   -3.593811
H     -6.569117    3.404680   -2.144110
H     -5.689340    2.069346   -2.948810
H     -5.004660   -0.052068   -2.191411
H     -3.521682   -1.868396   -1.496291
H     -1.346600   -1.487749    2.534673
H     -0.629442   -2.948049    1.795282
H      0.031176   -0.066621    0.931818
H      0.738585   -1.550455    0.232438
H      1.810680   -0.182564    2.259998
H      1.775031   -3.137026    1.815996
H      2.681766   -2.429266    3.166865
H      3.055986   -1.366251    0.300315
H      4.554762   -2.910767   -0.037974
H      4.993561   -1.576422    2.701009
H      4.071514   -0.094350    2.345353
H      3.403190    1.044720    0.473641
H      3.273897    2.695521   -1.335089
H      5.164612    2.980763   -2.911366
H      7.203565    1.592609   -2.665748
H      7.355125   -0.081618   -0.852091
H     -2.157760    0.520287    1.825696
H     -3.639323    2.334666    1.129298
