42
Lipophilicity 2071 3.140000104904175
C     -2.919408   -1.346537   -2.511884
C     -2.369203   -1.136560   -1.099145
N     -0.989511   -1.621555   -1.021913
C     -0.575444   -2.652835   -0.114332
O     -1.403254   -3.519879    0.277136
C      0.829457   -2.725929    0.338280
C      1.451880   -3.972269    0.504112
C      2.786261   -4.041011    0.905615
C      3.487582   -2.861014    1.151187
N      2.867556   -1.660157    1.012964
C      1.567068   -1.558278    0.617356
O      0.938215   -0.306704    0.555908
C      1.590107    0.928190    0.445129
C      2.812028    1.072217   -0.238086
C      3.410210    2.331626   -0.349107
C      2.791485    3.453339    0.209873
C      1.571087    3.317939    0.876900
C      0.972418    2.059964    0.991396
C     -2.420885    0.323897   -0.696719
C     -3.166310    0.720159    0.428530
C     -3.202752    2.063099    0.816735
C     -2.496274    3.023195    0.088756
C     -1.749328    2.642247   -1.027907
C     -1.706919    1.300790   -1.418837
H     -3.956769   -0.954570   -2.580154
H     -2.937886   -2.431761   -2.748038
H     -2.288100   -0.834409   -3.268327
H     -3.014422   -1.729297   -0.413115
H     -0.261135   -1.159266   -1.612492
H      0.911393   -4.889470    0.304511
H      3.273205   -5.000474    1.022905
H      4.522585   -2.899285    1.463398
H      3.286829    0.223241   -0.710876
H      4.348514    2.439645   -0.877706
H      3.253865    4.427764    0.119859
H      1.087547    4.187450    1.303004
H      0.025637    1.962340    1.507249
H     -3.717957   -0.008830    1.008841
H     -3.777940    2.359197    1.684433
H     -2.523218    4.061455    0.393053
H     -1.195277    3.385665   -1.586288
H     -1.112937    1.026670   -2.280857
