40
Lipophilicity 1165 2.5
C     -5.725410   -0.361475   -1.073098
O     -4.328385   -0.233720   -0.830070
C     -3.760527    0.103389    0.410237
C     -4.557715    0.327689    1.551291
C     -3.966885    0.628452    2.780595
F     -4.743534    0.838973    3.871921
C     -2.578841    0.708574    2.888622
C     -1.776267    0.494733    1.767138
C     -2.354815    0.199879    0.519753
C     -1.477432   -0.009017   -0.657405
C     -1.711926    0.672645   -1.861897
N     -0.888152    0.486385   -2.926578
C      0.178625   -0.353188   -2.870191
C      0.460119   -1.056389   -1.691019
C      1.651432   -1.970551   -1.601176
N      2.651544   -1.410462   -0.694736
C      3.446789   -0.265192   -1.041497
O      3.340091    0.246033   -2.190023
C      4.388650    0.319224   -0.062707
C      5.182970    1.431535   -0.387820
N      6.034450    1.942053    0.540431
C      6.134126    1.398071    1.780938
C      5.347656    0.294029    2.109941
N      4.495733   -0.218113    1.183890
C     -0.374824   -0.873475   -0.580589
H     -5.884443   -0.629838   -2.137508
H     -6.151928   -1.165210   -0.436555
H     -6.238068    0.602258   -0.869318
H     -5.635915    0.264332    1.499526
H     -2.122391    0.940916    3.842246
H     -0.700762    0.575176    1.868691
H     -2.537986    1.366359   -1.950469
H      0.808851   -0.466506   -3.742752
H      2.106973   -2.148109   -2.599815
H      1.316390   -2.957624   -1.214801
H      2.780622   -1.869542    0.234781
H      5.129464    1.890997   -1.366212
H      6.818218    1.819860    2.505054
H      5.412756   -0.152804    3.092933
H     -0.169255   -1.410346    0.338246
