67
Lipophilicity 469 2.700000047683716
C     -2.172767   -2.335950    2.200024
O     -2.774190   -1.067764    1.960696
C     -2.216820   -0.057521    1.160110
C     -0.961354   -0.202728    0.538413
C     -0.438505    0.827348   -0.264746
C      0.813925    0.735722   -0.912301
N      1.589910   -0.474336   -0.882520
C      3.025889   -0.495163   -0.948874
C      3.688936   -1.612537   -1.466191
N      5.045667   -1.643839   -1.503735
C      5.787630   -0.606029   -1.035445
N      7.220189   -0.685440   -1.084204
C      8.102538    0.389305   -0.712691
O      7.648074    1.557935   -0.572963
C      9.554806    0.152222   -0.526145
C     10.047685   -1.126464   -0.200716
C     11.420222   -1.333797   -0.030172
C     12.313579   -0.270296   -0.172768
C     11.836063    1.005157   -0.480298
C     10.464910    1.218936   -0.652429
N      5.162239    0.481648   -0.507923
C      3.807744    0.558089   -0.453942
N      1.267013    1.797562   -1.633783
C      0.547337    2.941890   -1.747387
N     -0.663227    3.046709   -1.145932
C     -1.172244    2.023331   -0.412749
C     -2.419792    2.164491    0.199893
C     -2.952097    1.122919    0.980547
O     -4.206623    1.218736    1.604110
C     -5.223627    2.171987    1.290732
C     -5.816183    1.924429   -0.104998
C     -6.312486    0.486451   -0.300659
N     -7.438026    0.199732    0.623609
C     -7.095577   -0.811730    1.648310
C     -7.287340   -2.254673    1.133177
O     -7.385472   -2.286190   -0.275351
C     -8.559490   -1.611199   -0.690368
C     -8.669765   -0.188710   -0.090715
H     -1.192830   -2.205627    2.704606
H     -2.834674   -2.931704    2.861460
H     -2.041202   -2.881217    1.242072
H     -0.394250   -1.106853    0.698621
H      1.087476   -1.390305   -0.935001
H      3.127198   -2.454901   -1.847160
H      7.634237   -1.569470   -1.455391
H      9.379164   -1.963871   -0.056760
H     11.790696   -2.319846    0.218342
H     13.375709   -0.433232   -0.041012
H     12.529743    1.828736   -0.586335
H     10.118072    2.215669   -0.895809
H      3.347584    1.427889   -0.005658
H      0.935401    3.767743   -2.327201
H     -2.960269    3.091454    0.069952
H     -6.031155    2.082578    2.047632
H     -4.826634    3.205995    1.367366
H     -6.661279    2.627967   -0.270204
H     -5.049070    2.143889   -0.877043
H     -6.618688    0.383257   -1.366512
H     -5.465374   -0.224448   -0.169338
H     -6.053980   -0.671058    2.012426
H     -7.750404   -0.656503    2.533514
H     -6.414654   -2.869331    1.439502
H     -8.187118   -2.719059    1.599081
H     -9.460171   -2.212799   -0.433541
H     -8.531953   -1.530554   -1.797378
H     -8.909541    0.552769   -0.884610
H     -9.520804   -0.160813    0.624762
