39
Lipophilicity 1613 1.5199999809265137
C     -1.982113   -2.300271   -1.991563
C     -0.953669   -1.637085   -1.122949
N      0.332623   -1.582066   -1.582409
C      1.280663   -0.979242   -0.830922
N      2.577231   -0.852576   -1.158185
C      3.052645   -0.180087   -0.073484
N      2.095108    0.082734    0.852299
N      0.993169   -0.432813    0.346254
C     -0.252905   -0.436291    0.878890
O     -0.499962    0.156887    2.117131
C     -1.288595   -1.056839    0.141105
C     -2.705931   -1.064468    0.678759
C     -3.548652    0.002676    0.026622
C     -4.672841   -0.347574   -0.741741
C     -5.456357    0.644502   -1.339228
C     -5.130645    1.992362   -1.168304
C     -4.022505    2.350838   -0.396611
C     -3.235788    1.362263    0.202330
C      4.466345    0.223625    0.080046
C      4.895655    0.916759    1.223470
C      6.234113    1.291395    1.354134
C      7.136579    0.970443    0.339577
N      6.710430    0.299469   -0.762663
C      5.412371   -0.076965   -0.914570
H     -2.714800   -1.549565   -2.350082
H     -1.499822   -2.760618   -2.880017
H     -2.502847   -3.105089   -1.433288
H      0.237682    0.604398    2.647293
H     -2.715039   -0.898758    1.776957
H     -3.154916   -2.069794    0.536328
H     -4.941002   -1.387253   -0.882734
H     -6.317304    0.368016   -1.934032
H     -5.738639    2.758924   -1.631084
H     -3.773816    3.395436   -0.260809
H     -2.384374    1.657278    0.801580
H      4.199777    1.168512    2.013963
H      6.568814    1.825699    2.233897
H      8.176598    1.254736    0.428016
H      5.122720   -0.609596   -1.810993
