53
Lipophilicity 894 4.480000019073486
C      6.101423    1.798959    1.341356
O      5.030969    1.206499    0.612977
C      4.466896   -0.043291    0.909589
C      4.919633   -0.841196    1.974190
C      4.326906   -2.079574    2.229502
C      3.267445   -2.545079    1.427634
O      2.640919   -3.778805    1.672084
C      3.004205   -4.677710    2.714603
C      2.812393   -1.747702    0.358009
C      3.417447   -0.504525    0.109529
C      1.711141   -2.213443   -0.519515
C      1.857550   -3.416325   -1.224812
C      0.850335   -3.861318   -2.078864
C     -0.321913   -3.120460   -2.235161
C     -0.510809   -1.919334   -1.520507
C     -1.685039   -1.137450   -1.643079
N     -2.744424   -1.528159   -2.531519
C     -1.777756    0.065564   -0.904904
N     -0.737252    0.439597   -0.116130
N      0.367413   -0.293000   -0.001824
C      0.525438   -1.462705   -0.671979
C     -2.988131    0.918050   -0.902516
O     -4.127456    0.397879   -1.049723
N     -2.870147    2.332286   -0.670473
C     -4.026689    3.240545   -0.657445
C     -4.659949    3.399466   -2.048698
C     -3.715613    4.581561    0.021538
C     -4.720503    4.256333    1.119376
C     -5.025938    2.917846    0.459117
H      6.344820    2.783266    0.891644
H      5.802703    1.955484    2.399419
H      7.002467    1.151899    1.289873
H      5.729811   -0.513765    2.611327
H      4.698754   -2.666652    3.057959
H      2.872077   -4.189440    3.703155
H      2.346750   -5.569853    2.668654
H      4.057422   -5.005434    2.586303
H      3.078550    0.106697   -0.718601
H      2.763963   -4.001735   -1.128122
H      0.982214   -4.783509   -2.630263
H     -1.060908   -3.498507   -2.925445
H     -3.316311   -0.813514   -3.032882
H     -2.989236   -2.529289   -2.689488
H     -1.912188    2.738173   -0.571584
H     -3.899211    3.773371   -2.766079
H     -5.505770    4.119894   -2.019485
H     -5.046400    2.425824   -2.413981
H     -2.681457    4.662790    0.422073
H     -4.020068    5.471973   -0.572052
H     -5.595032    4.943173    1.113536
H     -4.241767    4.141299    2.116496
H     -4.718882    2.063016    1.101099
H     -6.080798    2.850329    0.112413
