20
Lipophilicity 773 0.4000000059604645
N      3.433509    0.410438    0.485841
C      2.719612   -0.353701   -0.530521
C      1.244684   -0.181274   -0.353496
N      0.541589    0.822029   -0.944087
C     -0.703008    0.627117   -0.472284
C     -1.846709    1.372451   -0.749682
C     -3.047975    0.983086   -0.126066
C     -3.073197   -0.126946    0.750180
C     -1.897511   -0.856684    1.009718
C     -0.730149   -0.442630    0.372316
N      0.498404   -0.964911    0.463954
H      3.271423   -0.047154    1.412785
H      4.456606    0.324172    0.287540
H      3.011170    0.009049   -1.539992
H      2.985363   -1.431618   -0.456734
H     -1.814160    2.221589   -1.419935
H     -3.957196    1.537835   -0.317691
H     -4.001475   -0.416657    1.225055
H     -1.901567   -1.706763    1.679532
H      0.810587   -1.779429    1.038484
