41
Lipophilicity 809 3.799999952316284
C      5.581705    0.856475   -0.090127
C      5.294123    1.742268    1.120696
C      4.370658    1.058490    2.134430
N      3.030885    0.873286    1.576804
C      2.574533   -0.380461    1.044645
O      3.308011   -1.403068    1.127468
C      1.225066   -0.481208    0.445684
N      0.248823    0.321731    0.942044
N     -1.009597    0.257229    0.514952
C     -1.398666   -0.619537   -0.445657
C     -2.744005   -0.651465   -0.877148
C     -3.106644   -1.515020   -1.921722
C     -2.155852   -2.337064   -2.523198
C     -0.829645   -2.316840   -2.091031
C     -0.432698   -1.468200   -1.037325
C      0.905324   -1.401947   -0.578771
N      1.931830   -2.212965   -1.172828
C     -3.780639    0.210910   -0.257027
C     -3.955318    0.229885    1.138528
C     -4.940644    1.036714    1.715902
C     -5.762382    1.826174    0.907513
C     -5.602490    1.807933   -0.480334
C     -4.618824    1.002427   -1.062433
H      6.013371   -0.114418    0.233753
H      6.311290    1.364520   -0.755242
H      4.651740    0.672354   -0.668076
H      4.836716    2.696673    0.780512
H      6.256765    1.983535    1.621141
H      4.807529    0.090754    2.463395
H      4.292554    1.703678    3.035614
H      2.433617    1.722690    1.458649
H     -4.132186   -1.558167   -2.267956
H     -2.448537   -2.994032   -3.332299
H     -0.129004   -2.957619   -2.605082
H      1.739659   -3.178783   -1.515717
H      2.911030   -1.862498   -1.259978
H     -3.339246   -0.389478    1.778598
H     -5.069966    1.046426    2.790456
H     -6.524823    2.449698    1.356237
H     -6.240631    2.418811   -1.105708
H     -4.503431    1.004752   -2.139364
