26
Lipophilicity 203 2.4000000953674316
N      3.798331   -2.398678    0.783035
C      2.992351   -1.238572    0.591377
N      3.555088   -0.004597    0.635167
C      2.787710    1.099545    0.452766
N      3.378645    2.396022    0.498780
N      1.455969    0.966956    0.226392
C      0.882456   -0.265466    0.180516
N      1.660136   -1.366022    0.364691
C     -0.574463   -0.407926   -0.066884
C     -1.170348   -1.681458   -0.112583
C     -2.537752   -1.815122   -0.359930
C     -3.331349   -0.684042   -0.555498
C     -2.766477    0.600013   -0.487029
C     -1.383267    0.728242   -0.265499
C     -3.612007    1.822105   -0.746336
F     -3.566903    2.128914   -2.093399
F     -4.927616    1.597043   -0.379182
F     -3.140572    2.902932   -0.021364
H      3.370590   -3.350639    0.750383
H      4.823664   -2.307137    0.957804
H      4.402494    2.504530    0.672531
H      2.792880    3.249040    0.359133
H     -0.580412   -2.577289    0.034318
H     -2.983437   -2.800524   -0.405662
H     -4.386228   -0.813870   -0.762196
H     -0.939483    1.716001   -0.251332
