80
Lipophilicity 1172 2.2699999809265137
C     -0.548324   -1.305886   -0.172853
C      0.490476   -0.574679    0.690668
C      0.711768   -1.303996    2.024176
C      1.517044   -0.467265    3.034482
C      2.933584   -0.116368    2.557689
N      3.703534   -1.327700    2.271188
C      4.615074   -1.428174    1.161299
C      5.338830   -0.296982    0.744820
C      6.275036   -0.397331   -0.295838
N      6.488276   -1.605467   -0.883148
C      5.811893   -2.724931   -0.515810
C      6.077437   -3.936639   -1.164826
C      5.381804   -5.093324   -0.803916
C      4.413488   -5.042958    0.199899
C      4.136881   -3.837490    0.853860
C      4.844258   -2.664997    0.515955
C      7.067057    0.775318   -0.740611
C      6.527402    2.075713   -0.710830
C      7.292415    3.167419   -1.131930
C      8.597164    2.975905   -1.592253
C      9.138321    1.690165   -1.638092
C      8.378452    0.594209   -1.219498
C     -0.718899   -0.655312   -1.563024
C     -1.967907    0.234501   -1.681590
C     -1.880509    1.508849   -0.831461
N     -2.987145    2.416039   -1.142686
C     -4.378387    2.074712   -0.964601
C     -4.764535    1.229795    0.091105
C     -6.116606    0.915635    0.295630
N     -7.055244    1.465841   -0.519195
C     -6.733504    2.288094   -1.550518
C     -7.749908    2.808126   -2.358955
C     -7.435379    3.627678   -3.443209
C     -6.103147    3.922798   -3.733798
C     -5.078017    3.414797   -2.930511
C     -5.378381    2.605185   -1.814532
C     -6.546348    0.012180    1.392460
C     -7.813049    0.182863    1.986301
C     -8.234755   -0.664620    3.015360
C     -7.402542   -1.697303    3.456419
C     -6.149087   -1.887477    2.866295
C     -5.721695   -1.041953    1.838516
H     -0.205703   -2.356462   -0.313353
H     -1.523417   -1.348921    0.362555
H      1.451367   -0.532461    0.136062
H      0.155043    0.462502    0.885578
H     -0.273833   -1.534038    2.486187
H      1.225368   -2.272309    1.838167
H      1.587955   -1.034110    3.988381
H      0.967448    0.473490    3.251987
H      3.450919    0.458003    3.356172
H      2.869783    0.535750    1.659346
H      3.686100   -2.093403    2.981910
H      5.213194    0.642536    1.267692
H      6.822038   -3.983123   -1.950042
H      5.590722   -6.030240   -1.307158
H      3.874759   -5.941026    0.473731
H      3.366509   -3.834911    1.612673
H      5.510698    2.249374   -0.382939
H      6.868137    4.162349   -1.108662
H      9.187278    3.824330   -1.914462
H     10.148776    1.541403   -1.996512
H      8.822132   -0.393112   -1.253236
H     -0.826487   -1.470118   -2.312656
H      0.186535   -0.079067   -1.855049
H     -2.869123   -0.351688   -1.397943
H     -2.083420    0.527493   -2.748313
H     -0.920265    2.027026   -1.047954
H     -1.891089    1.263106    0.248907
H     -2.732603    3.365117   -1.496469
H     -4.020953    0.850045    0.776257
H     -8.785602    2.573220   -2.151933
H     -8.225463    4.023057   -4.068299
H     -5.861911    4.542384   -4.589084
H     -4.061001    3.645961   -3.208924
H     -8.472140    0.978791    1.661664
H     -9.208145   -0.522426    3.468966
H     -7.731384   -2.354608    4.250954
H     -5.510937   -2.696745    3.198834
H     -4.758111   -1.232140    1.381065
