59
Lipophilicity 823 3.119999885559082
C     -8.856121   -1.945473    2.562299
O     -8.067603   -1.938223    1.376592
C     -6.874706   -1.214721    1.218941
C     -6.340487   -0.421939    2.250676
C     -5.152425    0.284165    2.057287
C     -4.475561    0.220758    0.829204
C     -5.003660   -0.580335   -0.198337
C     -6.202973   -1.295790   -0.009906
O     -6.757466   -2.100098   -1.018584
C     -6.196446   -2.271688   -2.316170
C     -3.209811    0.970312    0.638416
O     -2.554275    1.347648    1.648655
N     -2.742021    1.308248   -0.678412
C     -1.381621    1.692237   -0.954080
C     -0.320187    1.034978   -0.305891
C      1.012886    1.361524   -0.589048
N      2.070083    0.683772    0.112748
C      3.377326    0.453157   -0.439806
O      3.534122    0.451362   -1.691742
C      4.535970    0.166930    0.442285
C      4.511751    0.528329    1.798940
C      5.607902    0.263859    2.618860
C      6.743670   -0.357928    2.099525
C      6.805522   -0.724732    0.740201
C      5.688617   -0.450851   -0.078856
N      7.989428   -1.366725    0.196638
C      9.285661   -1.237524    0.873783
C      7.911461   -2.156396   -1.038616
C      1.285368    2.376969   -1.518553
C      0.242555    3.027709   -2.179226
C     -1.094331    2.695815   -1.907774
C     -2.196296    3.415714   -2.637102
H     -9.739959   -2.597258    2.405851
H     -9.208341   -0.917886    2.792937
H     -8.264421   -2.347146    3.411823
H     -6.836548   -0.344096    3.208383
H     -4.767680    0.889624    2.868802
H     -4.471172   -0.665089   -1.134647
H     -5.187279   -2.728636   -2.238762
H     -6.847866   -2.948618   -2.906067
H     -6.135581   -1.293530   -2.838193
H     -3.442252    1.361179   -1.450944
H     -0.528767    0.241858    0.401123
H      1.840479    0.239039    1.030189
H      3.656024    1.033203    2.227343
H      5.578772    0.545545    3.663629
H      7.568060   -0.554374    2.770691
H      5.710530   -0.714231   -1.127157
H     10.119687   -1.591141    0.231588
H      9.480801   -0.171175    1.116010
H      9.286396   -1.840091    1.806110
H      7.782012   -1.481505   -1.910423
H      7.057385   -2.864279   -0.981554
H      8.832049   -2.756932   -1.198906
H      2.302902    2.681695   -1.723902
H      0.481630    3.801386   -2.898496
H     -2.671941    2.727130   -3.366480
H     -1.811054    4.299571   -3.189015
H     -2.960199    3.774695   -1.915297
