44
Lipophilicity 812 2.2899999618530273
C     -2.545926    2.538834    0.259756
O     -2.305239    1.214750   -0.204090
C     -3.301361    0.328509   -0.648158
C     -4.658606    0.706095   -0.697740
C     -5.624261   -0.183478   -1.174557
F     -6.926520    0.191360   -1.220591
C     -5.250706   -1.455610   -1.607653
C     -3.911599   -1.846083   -1.559794
C     -2.928421   -0.966676   -1.073366
C     -1.514838   -1.410513   -1.019484
C     -0.908748   -1.985832   -2.148664
C      0.428262   -2.387939   -2.103658
C      1.172372   -2.222999   -0.933438
C      0.579057   -1.662490    0.208362
C      1.387208   -1.456615    1.468256
N      1.689991   -0.035500    1.713734
C      2.599997    0.541317    0.706858
C      4.019941   -0.004197    0.834855
C      4.947034    1.115099    0.371046
C      4.112849    2.393253    0.326063
C      2.754374    2.042444    0.912291
C     -0.766391   -1.265322    0.161400
H     -1.580661    2.999532    0.553846
H     -3.214035    2.517147    1.146403
H     -3.000169    3.150017   -0.548353
H     -4.976007    1.688634   -0.376626
H     -6.000147   -2.143211   -1.978131
H     -3.642929   -2.842717   -1.888192
H     -1.465728   -2.106859   -3.069647
H      0.891334   -2.820973   -2.980859
H      2.211410   -2.527674   -0.919431
H      0.803178   -1.845862    2.329838
H      2.324152   -2.053914    1.444705
H      0.791362    0.502800    1.705992
H      2.221342    0.369193   -0.326459
H      4.242267   -0.250708    1.897229
H      4.154978   -0.916055    0.213434
H      5.348348    0.886504   -0.640754
H      5.799707    1.227790    1.075999
H      4.595354    3.209659    0.906406
H      3.989587    2.725334   -0.728560
H      2.750518    2.284045    1.999106
H      1.937890    2.605534    0.409541
H     -1.230224   -0.846622    1.046715
