49
Lipophilicity 1223 2.9600000381469727
C      5.400697    1.188599   -0.569625
N      4.235319    0.430230   -0.087211
C      4.652531   -0.463991    1.007415
C      3.172885    1.360726    0.356575
C      1.794498    0.683546    0.376516
C      1.402806    0.132273   -0.999082
N      0.088427   -0.519174   -0.931727
C     -1.137773    0.052957   -1.101071
C     -1.383868    1.528675   -1.289498
C     -1.723679    2.187792    0.062323
C     -3.166441    2.710169    0.174986
C     -4.283474    1.757455   -0.295632
C     -4.148638    0.293880    0.181365
C     -3.635306   -0.659860   -0.918345
C     -2.146784   -0.882737   -0.856117
C     -1.494307   -2.057037   -0.523656
C     -1.990679   -3.309366   -0.150547
C     -1.066613   -4.315772    0.176755
C      0.317951   -4.054552    0.136097
C      0.792591   -2.785556   -0.236217
C     -0.145436   -1.801181   -0.572447
H      5.117918    1.803976   -1.450706
H      6.201703    0.494854   -0.905249
H      5.804942    1.854520    0.225575
H      3.809179   -1.108845    1.327730
H      5.026667    0.112266    1.882908
H      5.456565   -1.147741    0.658994
H      3.099993    2.230362   -0.335923
H      3.397361    1.773264    1.366424
H      1.774038   -0.131851    1.128861
H      1.041831    1.436496    0.691606
H      1.400657    0.944120   -1.753925
H      2.162393   -0.598265   -1.347849
H     -0.493524    2.024038   -1.722092
H     -2.186067    1.677484   -2.040360
H     -1.040761    3.051948    0.216566
H     -1.521852    1.497859    0.911980
H     -3.351964    2.975633    1.238882
H     -3.248787    3.652816   -0.409067
H     -5.239557    2.163271    0.102796
H     -4.389075    1.817798   -1.399398
H     -3.533813    0.217221    1.104314
H     -5.165327   -0.054780    0.468927
H     -3.905863   -0.300262   -1.933445
H     -4.154955   -1.633300   -0.803452
H     -3.051885   -3.510412   -0.102170
H     -1.420467   -5.295617    0.469920
H      1.020160   -4.834924    0.399119
H      1.855784   -2.589004   -0.249460
