55
Lipophilicity 1634 2.7100000381469727
C     -2.012677    3.022741   -2.897661
C     -2.901899    2.215106   -1.991511
C     -4.295006    2.323403   -2.113285
C     -5.140251    1.588347   -1.281027
C     -4.612534    0.737369   -0.297200
C     -3.215943    0.640053   -0.162691
C     -2.355431    1.362266   -1.008389
N     -0.930337    1.277052   -0.831672
C     -0.228674    0.029727   -0.675793
O     -0.868277   -1.057652   -0.696008
C      1.242402   -0.005535   -0.496020
C      1.834243   -1.063501    0.215523
C      3.220087   -1.116053    0.391250
C      4.042722   -0.112635   -0.152310
O      5.437423   -0.119429   -0.003855
C      6.168212   -1.120673    0.698521
C      7.627655   -0.796360    0.641156
C      8.374880   -1.074240   -0.512601
C      9.728135   -0.731510   -0.550398
C     10.318686   -0.110577    0.551681
C      9.541216    0.162520    1.679418
N      8.224728   -0.178693    1.698187
C      3.456293    0.932926   -0.872432
C      2.070610    0.987960   -1.048207
C     -5.528615   -0.027115    0.585500
C     -5.177490   -0.966529    1.540742
N     -6.307112   -1.417435    2.110577
C     -6.411521   -2.460947    3.125778
C     -7.314125   -0.770978    1.487431
C     -8.763812   -0.974548    1.793133
N     -6.874368    0.095489    0.551182
H     -2.580552    3.443752   -3.754594
H     -1.562666    3.861041   -2.325862
H     -1.203553    2.383013   -3.309458
H     -4.732012    2.977726   -2.857639
H     -6.210885    1.691066   -1.406819
H     -2.786800    0.028568    0.617870
H     -0.390354    2.169644   -0.844987
H      1.222352   -1.845737    0.647987
H      3.640328   -1.940334    0.951031
H      5.834656   -1.154148    1.758605
H      5.988555   -2.115438    0.235329
H      7.914099   -1.548766   -1.370189
H     10.317068   -0.943940   -1.433267
H     11.366471    0.159793    0.530955
H      9.983403    0.648409    2.538839
H      4.080051    1.704709   -1.305618
H      1.659422    1.793844   -1.640654
H     -4.184444   -1.310157    1.797392
H     -5.422679   -2.642312    3.598506
H     -7.127446   -2.151064    3.915786
H     -6.766379   -3.402238    2.656426
H     -9.018039   -2.051262    1.704129
H     -9.391547   -0.397575    1.081857
H     -8.978265   -0.629144    2.825718
