65
Lipophilicity 182 1.1299999952316284
C     -5.892710    0.527828    1.497130
C     -4.880095    1.572004    1.004725
C     -4.168903    2.224254    2.202082
C     -3.898942    0.949378   -0.024711
N     -3.059741   -0.084203    0.596862
C     -3.160765   -1.474141    0.255592
O     -4.179810   -1.912475   -0.343348
C     -2.058319   -2.423698    0.622017
N     -0.737185   -1.862224    0.256886
C      0.122735   -1.431644    1.244751
O     -0.196559   -1.536372    2.461777
C      1.371276   -0.871481    0.919285
C      1.713936   -0.721307   -0.427025
C      0.842257   -1.147053   -1.418676
C     -0.382921   -1.725455   -1.070805
C     -1.287110   -2.124354   -2.170221
C     -1.434429   -3.475371   -2.516216
C     -2.290923   -3.842183   -3.558874
C     -2.998233   -2.862794   -4.262514
C     -2.845630   -1.515073   -3.927956
C     -1.987787   -1.144436   -2.888839
N      2.248240   -0.399582    1.958766
C      3.678667   -0.494675    1.897957
O      4.230619   -1.233288    1.038139
N      4.478637    0.227915    2.843159
C      5.939437    0.183398    2.834235
C      6.479216    0.917115    1.636042
C      6.357913    2.310173    1.550044
C      6.841995    2.975891    0.421037
N      7.426885    2.276148   -0.590504
O      7.895077    2.949195   -1.694510
C      7.555155    0.921876   -0.529504
C      7.083165    0.218799    0.581503
C     -3.032604    2.009191   -0.682300
O     -1.908365    2.228075   -0.253955
C     -3.535024    2.836732   -1.835560
F     -3.509083    4.173048   -1.484120
F     -4.830078    2.492479   -2.182229
F     -2.713854    2.642776   -2.930956
H     -5.382907   -0.275797    2.069282
H     -6.648368    1.008026    2.153754
H     -6.426993    0.071830    0.637131
H     -5.460876    2.368933    0.488429
H     -3.457971    3.005399    1.860123
H     -4.916515    2.715041    2.863681
H     -3.619024    1.467594    2.801270
H     -4.506613    0.484837   -0.831970
H     -2.324101    0.202793    1.281845
H     -2.206639   -3.398584    0.110952
H     -2.139535   -2.644760    1.706416
H      2.643284   -0.247643   -0.713759
H      1.115604   -1.017543   -2.459195
H     -0.887882   -4.240268   -1.979048
H     -2.405951   -4.885028   -3.821480
H     -3.661764   -3.147222   -5.068764
H     -3.391460   -0.756774   -4.473629
H     -1.876723   -0.097669   -2.635656
H      1.824064   -0.017072    2.833681
H      4.001409    0.807698    3.569781
H      6.328636    0.667688    3.756166
H      6.281455   -0.874552    2.851940
H      5.888578    2.872406    2.347512
H      6.747048    4.052864    0.351524
H      8.022905    0.382440   -1.344593
H      7.184201   -0.859102    0.615441
