42
Lipophilicity 955 3.200000047683716
C     -4.350245   -1.985658   -0.883041
O     -3.492885   -1.060049   -0.223429
C     -3.456915    0.320625   -0.482245
C     -4.314601    0.917417   -1.428768
C     -4.282110    2.297034   -1.643836
F     -5.113896    2.860363   -2.554490
C     -3.398134    3.097110   -0.920495
C     -2.538848    2.520695    0.016018
C     -2.552024    1.132322    0.238836
C     -1.616147    0.545185    1.228221
C     -1.498624    1.095276    2.514116
N     -0.627493    0.562615    3.410864
C      0.154938   -0.504641    3.103233
C      0.078555   -1.092361    1.833722
C      0.973461   -2.247660    1.477601
N      2.345230   -1.782576    1.287095
C      2.749783   -1.029324    0.135376
O      1.927588   -0.805985   -0.795935
C      4.157022   -0.492986    0.046034
C      4.221072    1.010946   -0.213132
C      4.895660    0.749188   -1.553684
C      4.835100   -0.751433   -1.298499
C     -0.809201   -0.553060    0.892600
H     -5.412683   -1.723951   -0.693817
H     -4.143587   -1.986685   -1.974100
H     -4.158987   -3.003035   -0.484734
H     -5.015828    0.323387   -1.998524
H     -3.374569    4.166286   -1.087930
H     -1.849530    3.157439    0.557057
H     -2.105757    1.942013    2.807665
H      0.840580   -0.891988    3.845981
H      0.949067   -2.991077    2.303840
H      0.620419   -2.768738    0.560947
H      3.050500   -2.002813    2.026030
H      4.798456   -0.797694    0.902714
H      4.893670    1.533875    0.501523
H      3.228913    1.501991   -0.326590
H      4.265180    1.060200   -2.415287
H      5.937840    1.135229   -1.590830
H      4.200904   -1.283023   -2.042122
H      5.846370   -1.198905   -1.181399
H     -0.858244   -0.975552   -0.103876
