67
Lipophilicity 367 0.8700000047683716
C     -6.932487    4.019842    0.515753
N     -5.469964    3.908964    0.546259
C     -5.008871    2.547018    0.205210
C     -5.192726    2.261001   -1.292242
C     -3.546470    2.394339    0.543047
O     -2.776518    3.392582    0.464156
N     -3.015726    1.100865    0.872276
C     -1.572074    0.879377    1.040105
C     -1.245164   -0.487650    1.706523
C     -1.647998   -1.714231    0.849802
C     -1.252226   -3.023220    1.547020
C     -1.869312   -3.110936    2.948164
C     -1.469875   -1.901547    3.802785
C     -1.866106   -0.586324    3.117410
C     -0.861166    1.012394   -0.283345
O     -1.469668    0.743746   -1.355639
N      0.523948    1.384717   -0.314260
C      1.315008    1.349921   -1.550554
C      2.640339    2.115251   -1.382546
C      3.590877    1.469270   -0.352524
C      3.316746   -0.025581   -0.105757
N      2.769381   -0.672349   -1.305459
C      1.598519   -0.104082   -1.988373
C      3.259403   -1.960925   -1.722253
O      2.436316   -2.886773   -1.965376
C      4.708625   -2.210392   -1.901463
C      5.225101   -3.514094   -1.784715
C      6.589412   -3.753975   -1.979773
C      7.446975   -2.702070   -2.308541
C      6.943030   -1.401850   -2.428151
C      5.579930   -1.157332   -2.233552
H     -7.304534    3.969253   -0.527540
H     -7.410378    3.228283    1.133842
H     -7.235351    5.007179    0.925851
H     -5.181770    4.113364    1.533132
H     -5.578908    1.790779    0.792120
H     -4.726622    1.287473   -1.559483
H     -4.722384    3.062975   -1.902430
H     -6.269085    2.190580   -1.550996
H     -3.682117    0.299197    0.925272
H     -1.179934    1.671854    1.716870
H     -0.137553   -0.522408    1.833787
H     -1.134425   -1.678647   -0.135086
H     -2.742389   -1.727307    0.663885
H     -0.144539   -3.087626    1.622214
H     -1.603149   -3.884387    0.937995
H     -2.977751   -3.162000    2.867512
H     -1.519727   -4.043135    3.444269
H     -0.371950   -1.915440    3.980189
H     -1.976019   -1.968719    4.790573
H     -2.975371   -0.528380    3.060313
H     -1.511614    0.263057    3.741132
H      0.958180    1.729826    0.572290
H      0.733804    1.857664   -2.353056
H      2.430136    3.166356   -1.085934
H      3.151519    2.151366   -2.370453
H      3.507756    2.012533    0.614296
H      4.639462    1.596850   -0.701366
H      4.254205   -0.519638    0.228754
H      2.584531   -0.140029    0.722167
H      1.796833   -0.102093   -3.083044
H      0.711676   -0.750192   -1.809871
H      4.577025   -4.343883   -1.532686
H      6.980382   -4.759453   -1.883994
H      8.503112   -2.893096   -2.465570
H      7.606574   -0.586742   -2.686689
H      5.203121   -0.151374   -2.362252
