51
Lipophilicity 832 3.200000047683716
C     -7.656603    0.981993   -1.273771
C     -7.164110    0.467934    0.079646
C     -5.688166    0.818323    0.340844
C     -4.706046   -0.116235   -0.331189
O     -5.086536   -0.826737   -1.302388
N     -3.332284   -0.202347    0.108353
C     -2.548518   -1.388066   -0.276357
C     -1.214353   -1.461876    0.472091
N     -0.539581   -0.162697    0.428806
C     -1.287127    1.077692    0.660274
C     -2.752668    0.800717    1.017068
C      0.893631   -0.113059    0.408770
N      1.559577    0.149945    1.561381
N      2.889507    0.195492    1.612253
C      3.664053   -0.019339    0.516756
C      5.129287    0.094663    0.675529
C      5.790806   -0.685204    1.637570
C      7.171643   -0.557954    1.818997
C      7.897500    0.358412    1.052906
C      7.242698    1.153800    0.108514
C      5.862168    1.029705   -0.075754
C      3.040226   -0.322784   -0.715819
C      3.776529   -0.624900   -1.881083
C      3.120540   -0.897690   -3.082906
C      1.728066   -0.881512   -3.142083
C      0.980543   -0.612345   -1.995166
C      1.624058   -0.351289   -0.770244
H     -7.553111    2.086676   -1.326883
H     -7.086932    0.523286   -2.107439
H     -8.729082    0.723051   -1.398816
H     -7.321064   -0.630693    0.148529
H     -7.785202    0.941435    0.870938
H     -5.520676    0.763443    1.438123
H     -5.484536    1.862503    0.019753
H     -2.354544   -1.355113   -1.369956
H     -3.128440   -2.310006   -0.052527
H     -0.580176   -2.250058    0.009980
H     -1.395614   -1.742373    1.532259
H     -0.821915    1.653618    1.489825
H     -1.244637    1.697451   -0.261331
H     -3.300296    1.764225    0.958188
H     -2.819093    0.425933    2.061284
H      5.239030   -1.396450    2.240104
H      7.678560   -1.167958    2.555471
H      8.965897    0.456576    1.195488
H      7.803953    1.870534   -0.476907
H      5.363916    1.663977   -0.798744
H      4.856828   -0.666615   -1.872995
H      3.694940   -1.122847   -3.972325
H      1.225448   -1.086530   -4.078554
H     -0.098090   -0.608707   -2.073795
