48
Lipophilicity 1991 3.2100000381469727
C     -1.330523    1.015517    3.185118
O     -2.584960    0.739208    2.569879
C     -2.823975    0.789466    1.186529
C     -1.816251    1.144881    0.273956
C     -2.074809    1.167070   -1.101972
N     -1.056924    1.546369   -2.045012
C      0.343167    1.266073   -1.888740
C      0.790706    0.122670   -1.204815
C      2.161319   -0.120995   -1.080650
O      2.583483   -1.269909   -0.396012
C      3.778907   -1.391341    0.327336
C      4.377358   -2.649065    0.441647
C      5.559503   -2.800513    1.168525
C      6.128554   -1.684845    1.794544
C      7.399120   -1.819646    2.571547
N      5.523005   -0.470585    1.688968
C      4.373273   -0.299768    0.983304
C      3.070914    0.759819   -1.687015
C      2.590616    1.870043   -2.383168
N      1.253087    2.094266   -2.470457
C     -3.362698    0.878641   -1.561477
C     -4.391632    0.524087   -0.666991
O     -5.680293    0.223405   -1.136101
C     -6.078135    0.242176   -2.503496
C     -4.112525    0.474178    0.723780
O     -5.065450    0.124238    1.700074
C     -6.421905   -0.240557    1.470563
H     -1.428769    0.885882    4.282272
H     -0.558020    0.310295    2.811605
H     -1.025701    2.062926    2.977467
H     -0.833146    1.419598    0.629136
H     -1.350696    2.069744   -2.900761
H      0.085823   -0.578613   -0.777119
H      3.929832   -3.508397   -0.041338
H      6.025652   -3.775099    1.244532
H      7.281533   -2.598278    3.354610
H      7.660161   -0.858171    3.062713
H      8.225459   -2.108667    1.888670
H      3.915988    0.679705    0.951955
H      4.136458    0.576019   -1.647008
H      3.281972    2.550507   -2.862014
H     -3.549486    0.923422   -2.625752
H     -5.482953   -0.493133   -3.085012
H     -7.149552   -0.036390   -2.571861
H     -5.949372    1.261348   -2.925114
H     -6.473848   -1.152348    0.839213
H     -6.901402   -0.466750    2.444763
H     -6.972865    0.601519    1.001612
