44
Lipophilicity 1695 1.5399999618530273
C      3.467447    2.282747   -1.398218
C      3.681651    1.652538   -0.026709
C      3.220346    0.221760   -0.020771
C      4.000850   -0.907169   -0.255844
C      5.478120   -0.919204   -0.492958
N      3.240141   -2.022391   -0.225146
C      1.978451   -1.612934   -0.004053
C      0.782831   -2.499297    0.156676
C     -0.500804   -1.722782   -0.198909
C     -0.608527   -0.363161    0.552299
C     -1.850091    0.421429    0.075233
N     -3.087050   -0.359912    0.314071
C     -3.644030   -0.142926    1.670910
C     -4.701518    0.979837    1.701737
O     -4.471819    1.907061    0.662797
C     -4.721343    1.301613   -0.594594
C     -4.109841   -0.114176   -0.720624
C      0.658903    0.459221    0.378118
O      0.642655    1.711425    0.521683
C      1.924364   -0.249047    0.133702
H      4.045971    1.730948   -2.169591
H      3.813612    3.337610   -1.380430
H      2.390094    2.266079   -1.668315
H      3.131100    2.232231    0.743056
H      4.760136    1.704311    0.234101
H      5.729124   -0.240922   -1.335120
H      6.004914   -0.579866    0.422952
H      5.821085   -1.944277   -0.746020
H      3.562977   -3.007549   -0.352359
H      0.730174   -2.846609    1.210512
H      0.878810   -3.385005   -0.506853
H     -0.515363   -1.542566   -1.297086
H     -1.375681   -2.361417    0.049759
H     -0.713054   -0.576277    1.637947
H     -1.902062    1.404691    0.594910
H     -1.716821    0.642415   -1.008505
H     -4.114792   -1.087766    2.017209
H     -2.839225    0.088759    2.403062
H     -4.643611    1.511235    2.675031
H     -5.728210    0.551492    1.628727
H     -4.275346    1.950293   -1.377944
H     -5.816622    1.265010   -0.786349
H     -4.919489   -0.868203   -0.604644
H     -3.688457   -0.269250   -1.738487
