22
Lipophilicity 1877 1.909999966621399
N     -3.860287    1.141448   -0.632656
C     -2.869122    0.215372   -0.186857
C     -1.509464    0.527431   -0.287900
C     -0.564310   -0.409470    0.162251
N     -1.004239   -1.583137    0.694902
C     -2.328426   -1.869308    0.786048
N     -3.249507   -0.975008    0.345880
C      0.895993   -0.144817    0.090396
C      1.763561   -0.747238    1.021631
C      3.140903   -0.513698    0.963974
C      3.670225    0.315877   -0.026324
C      2.823666    0.910369   -0.964001
C      1.445110    0.681534   -0.911049
H     -4.874216    0.905283   -0.552513
H     -3.589263    2.062601   -1.043654
H     -1.207786    1.487622   -0.685206
H     -2.649389   -2.810560    1.210433
H      1.375824   -1.389425    1.802697
H      3.798310   -0.976518    1.688678
H      4.736892    0.494196   -0.070091
H      3.236651    1.544659   -1.737792
H      0.818875    1.132787   -1.668848
