65
Lipophilicity 54 3.2899999618530273
C      6.910828    3.012492   -1.166650
C      6.677346    2.072020   -2.340654
O      5.391063    1.463909   -2.254636
C      5.029393    0.419270   -1.385952
C      5.962580   -0.225255   -0.551812
C      5.558425   -1.255331    0.301796
N      6.478486   -1.880501    1.084126
C      6.138259   -2.897037    1.917505
C      4.810942   -3.318426    2.004044
C      3.827611   -2.682991    1.240998
O      2.496472   -3.099758    1.391339
C      1.438984   -2.256245    1.767524
C      1.655964   -1.001878    2.359645
N      0.602615   -0.201279    2.664212
C     -0.684898   -0.577551    2.434757
C     -1.791687    0.392581    2.740136
C     -2.300236    1.028458    1.478228
O     -1.478254    1.539250    0.666254
N     -3.715065    1.099750    1.228945
C     -4.272635    1.532069   -0.021393
N     -3.553022    1.734731   -1.143630
N     -4.402528    2.052874   -2.108019
C     -5.661698    2.054286   -1.624155
C     -6.881995    2.276708   -2.468746
C     -7.498125    0.947415   -2.890174
C     -5.621626    1.724625   -0.279261
C     -6.772264    1.487948    0.652306
C     -0.956331   -1.834739    1.863109
O     -2.290623   -2.205411    1.624103
C     -2.692543   -3.438699    1.035229
C      0.125369   -2.675436    1.541656
C      4.203902   -1.655676    0.343228
C      3.283822   -1.038372   -0.521457
C      3.687685    0.008079   -1.372441
O      2.782050    0.666738   -2.220193
C      1.382122    0.401581   -2.273193
H      6.912188    2.454265   -0.209073
H      6.114801    3.783858   -1.137733
H      7.890844    3.516244   -1.285793
H      6.718552    2.667514   -3.276981
H      7.475240    1.304712   -2.401665
H      7.005814    0.059478   -0.558468
H      6.899549   -3.375485    2.519527
H      4.542316   -4.118879    2.681278
H      2.658378   -0.652911    2.569767
H     -1.421307    1.190555    3.419660
H     -2.612841   -0.137613    3.269430
H     -4.370547    0.811040    1.991471
H     -4.120629    2.243971   -3.094902
H     -7.629232    2.875389   -1.906653
H     -6.601864    2.852828   -3.376519
H     -6.762271    0.346336   -3.467386
H     -7.819870    0.373465   -1.997279
H     -8.386857    1.135054   -3.531856
H     -6.978295    0.398459    0.717801
H     -7.683300    2.007505    0.294047
H     -6.528775    1.878757    1.663279
H     -3.801395   -3.466756    0.976658
H     -2.279267   -3.523681    0.007378
H     -2.346964   -4.290611    1.659178
H     -0.039492   -3.645942    1.092601
H      2.259176   -1.374963   -0.545803
H      0.920579    0.580361   -1.277543
H      0.910846    1.083770   -3.011564
H      1.204235   -0.646916   -2.596487
