62
Lipophilicity 833 2.259999990463257
C     -4.975977   -2.428997    0.974423
O     -4.905382   -1.137483    1.568458
C     -4.685427    0.011663    0.802073
C     -5.756131    0.609977    0.092614
C     -7.151372    0.051287    0.160626
C     -5.475791    1.723367   -0.710886
C     -6.419549    2.496764   -1.593119
O     -5.582266    3.494401   -2.177680
C     -4.284033    3.363674   -1.707335
O     -3.339254    4.122416   -2.046461
C     -4.205679    2.248686   -0.786324
C     -3.133867    1.701752   -0.069950
O     -1.843004    2.228599   -0.158821
C     -3.383651    0.578269    0.751386
C     -2.243580   -0.063624    1.508382
C     -1.483375   -1.016853    0.619297
C     -0.446954   -1.765160    1.055539
C      0.000395   -1.725556    2.498146
C      0.281890   -2.665419    0.078050
C      1.156215   -1.864776   -0.897177
C      2.207172   -1.081539   -0.170933
O      2.135312    0.177801   -0.134620
O      3.231295   -1.762205    0.498947
C      4.259934   -1.109885    1.244800
C      5.443828   -0.745140    0.343239
N      5.035874    0.222227   -0.702140
C      5.095157    1.627008   -0.239878
C      6.532658    2.183393   -0.254419
O      7.132135    2.023423   -1.525366
C      7.203890    0.649179   -1.845328
C      5.792933    0.054417   -1.960372
H     -5.149810   -3.185709    1.767418
H     -4.019922   -2.662987    0.455874
H     -5.811091   -2.475522    0.243362
H     -7.321042   -0.484510    1.118213
H     -7.312038   -0.649863   -0.685443
H     -7.904920    0.863455    0.103298
H     -7.219808    2.977265   -0.991626
H     -6.845877    1.843182   -2.382294
H     -1.612386    3.023694   -0.738476
H     -1.553077    0.721460    1.886617
H     -2.628768   -0.606269    2.398010
H     -1.778800   -1.093641   -0.425729
H     -0.813572   -2.099724    3.156482
H      0.263545   -0.685425    2.787253
H      0.897565   -2.359576    2.661338
H     -0.461140   -3.258736   -0.499041
H      0.919212   -3.398360    0.619048
H      0.522525   -1.183446   -1.507425
H      1.657540   -2.568719   -1.595393
H      3.860528   -0.220372    1.777645
H      4.622819   -1.816250    2.020386
H      5.814606   -1.692338   -0.109772
H      6.271741   -0.347826    0.970818
H      4.464101    2.248725   -0.913003
H      4.669612    1.730401    0.781716
H      6.488748    3.268642   -0.024299
H      7.157231    1.717121    0.540622
H      7.714892    0.541820   -2.825827
H      7.812479    0.092738   -1.096782
H      5.248307    0.575594   -2.779644
H      5.853403   -1.016493   -2.254399
