51
Lipophilicity 539 3.0399999618530273
F      1.438389   -3.025681    1.825273
C      2.106808   -3.362555    0.662801
F      2.942839   -4.433911    0.921757
C      2.902482   -2.186993    0.174094
N      4.247698   -2.253092   -0.008006
C      4.564894   -1.012005   -0.412879
C      5.826843   -0.535362   -0.760168
C      5.928445    0.799732   -1.190248
C      4.777264    1.613486   -1.270357
C      3.515490    1.102058   -0.914587
C      3.450210   -0.224901   -0.471869
N      2.380234   -0.956393   -0.101015
C      1.008979   -0.529001    0.003480
N     -0.002562   -1.414656   -0.185448
C     -1.299280   -1.023100   -0.077536
N     -1.576226    0.273000    0.222676
C     -0.575796    1.172569    0.415879
N      0.714749    0.760928    0.306766
N     -0.880564    2.546177    0.737902
C     -2.262122    2.927949    1.063382
C     -2.473334    4.428549    0.843038
O     -1.467911    5.179022    1.493287
C     -0.219902    4.919018    0.883003
C      0.204276    3.465313    1.110280
N     -2.368408   -1.972896   -0.271190
C     -3.755529   -1.571015    0.001559
C     -4.736501   -2.481948   -0.741567
O     -4.442629   -3.842235   -0.497384
C     -3.189006   -4.160789   -1.066526
C     -2.060111   -3.407299   -0.357026
H      1.375424   -3.668088   -0.112837
H      6.700170   -1.172311   -0.706964
H      6.893162    1.202902   -1.470024
H      4.864763    2.635551   -1.615210
H      2.637093    1.723753   -1.003658
H     -2.984324    2.380061    0.419981
H     -2.469788    2.673787    2.125656
H     -3.458192    4.714523    1.268854
H     -2.511610    4.661700   -0.246100
H     -0.244589    5.152724   -0.206485
H      0.541581    5.586621    1.338438
H      1.112363    3.271490    0.499895
H      0.457254    3.314676    2.181980
H     -3.934596   -0.525641   -0.331666
H     -3.944691   -1.632725    1.095390
H     -4.729952   -2.255455   -1.832877
H     -5.763612   -2.271689   -0.374935
H     -3.015580   -5.251357   -0.950184
H     -3.174097   -3.945900   -2.159856
H     -1.928610   -3.813154    0.669254
H     -1.121885   -3.575438   -0.928019
