41
Lipophilicity 672 3.619999885559082
C     -3.832830   -1.132240    1.515544
C     -3.174260    0.121928    0.926967
C     -3.973006    1.389807    1.251173
N     -2.928348   -0.002589   -0.526669
C     -3.786919   -0.363386   -1.522025
C     -5.229483   -0.728873   -1.350904
N     -3.183126   -0.466747   -2.725417
C     -1.900317   -0.142550   -2.492980
C     -1.739845    0.155749   -1.160112
C     -0.448934    0.526684   -0.548013
C     -0.327358    1.649495    0.278982
C      0.929241    1.969136    0.789487
N      2.005304    1.206107    0.469700
C      1.880229    0.121082   -0.342085
N      3.026809   -0.658660   -0.710481
C      4.308413   -0.566793   -0.065690
C      5.475408   -0.749228   -0.824119
C      6.732518   -0.687849   -0.214776
C      6.833945   -0.459750    1.160239
F      8.053276   -0.403256    1.750346
C      5.677304   -0.301427    1.928529
C      4.418449   -0.361390    1.322281
N      0.661709   -0.195621   -0.856085
H     -3.350151   -2.045447    1.107152
H     -3.707862   -1.136748    2.619587
H     -4.920399   -1.164058    1.305869
H     -2.200762    0.210690    1.452358
H     -5.032068    1.299890    0.942537
H     -3.531225    2.266621    0.734467
H     -3.948382    1.579157    2.345505
H     -5.738336   -0.715377   -2.337747
H     -5.753003   -0.007927   -0.697294
H     -5.309763   -1.754922   -0.937345
H     -1.130277   -0.124307   -3.253138
H     -1.176739    2.277818    0.506500
H      1.052253    2.831677    1.430641
H      2.941611   -1.273621   -1.551486
H      5.409462   -0.928812   -1.889912
H      7.627333   -0.819639   -0.809419
H      5.754572   -0.141364    2.996293
H      3.535556   -0.273264    1.941183
