63
Lipophilicity 442 0.38999998569488525
C      7.353523   -2.577175    0.008765
O      7.445254   -1.552065    0.992826
C      6.610532   -0.424626    1.049345
C      6.828484    0.502692    2.070598
C      6.030111    1.639757    2.176290
C      5.002653    1.867103    1.256721
N      4.232972    2.974210    1.384062
C      3.223878    3.229874    0.521816
C      2.964213    2.347591   -0.527229
O      2.006943    2.607692   -1.308113
N      3.736405    1.218789   -0.698550
C      3.417625    0.299430   -1.816847
C      2.545695   -0.867512   -1.335864
N      1.285775   -0.350536   -0.756326
C      0.888721   -1.119776    0.437383
C     -0.352992   -0.499252    1.094472
C     -1.524114   -0.322463    0.099888
N     -2.190877   -1.603706   -0.225404
C     -3.231351   -1.965278    0.748761
C     -4.527677   -1.305177    0.383221
C     -5.377731   -1.880974   -0.574535
C     -6.567752   -1.233908   -0.914465
C     -6.893805   -0.020433   -0.305016
O     -8.075768    0.650572   -0.640092
C     -8.613819    1.717234    0.149730
C     -7.534502    2.470050    0.878808
O     -7.741870    3.650078    1.270780
N     -6.300377    1.817944    1.193143
C     -6.008764    0.538692    0.626477
N     -4.855586   -0.108012    0.944576
C     -1.033600    0.365755   -1.191598
O     -2.050366    0.379636   -2.160992
C      0.200238   -0.346526   -1.757138
C      4.756608    0.952629    0.200721
C      5.574929   -0.202215    0.118740
H      7.507719   -2.149154   -1.004688
H      8.144302   -3.332024    0.199649
H      6.363277   -3.076652    0.068429
H      7.624176    0.339546    2.788292
H      6.212543    2.347567    2.977730
H      2.622342    4.120786    0.654316
H      4.342360   -0.077014   -2.299604
H      2.892224    0.830341   -2.639680
H      2.353740   -1.559484   -2.187559
H      3.128783   -1.451393   -0.590526
H      1.708859   -1.089761    1.188807
H      0.710393   -2.186107    0.179412
H     -0.073941    0.500283    1.493848
H     -0.665236   -1.123146    1.958003
H     -2.255635    0.374424    0.568758
H     -1.494231   -2.381817   -0.272521
H     -3.375935   -3.070305    0.743640
H     -2.938546   -1.688386    1.786098
H     -5.120271   -2.819709   -1.049400
H     -7.233136   -1.671956   -1.648134
H     -9.313651    1.291484    0.900376
H     -9.180236    2.406974   -0.511807
H     -5.597307    2.293043    1.802858
H     -0.738525    1.414892   -0.951880
H     -2.733973    1.029172   -1.847406
H      0.527796    0.202328   -2.666903
H     -0.061057   -1.384879   -2.063204
H      5.419559   -0.939150   -0.650629
