58
Lipophilicity 1225 3.799999952316284
C     -1.084238    1.770756   -2.634542
C     -0.361207    0.935109   -1.542102
C     -0.445318   -0.584000   -1.940705
C     -1.846087   -1.077771   -1.718621
C     -2.467091   -2.234161   -2.140314
N     -3.618169   -2.385723   -1.446467
N     -3.730414   -1.370675   -0.596568
C     -2.652100   -0.571718   -0.735245
C     -2.198919    0.531027    0.128985
C     -1.078505    1.182423   -0.230569
C     -0.389537    2.170909    0.631754
C      0.808084    2.621846   -0.201496
C      1.080061    1.513216   -1.256468
O      1.635362    2.101436   -2.410498
C      2.080426    0.454529   -0.686700
C      3.510702    0.983459   -0.456136
C      4.416954   -0.132751    0.018653
C      5.233512   -0.783630   -0.925146
C      6.014439   -1.880636   -0.556473
C      5.978072   -2.356861    0.753997
F      6.729626   -3.429465    1.105843
C      5.164573   -1.733300    1.702410
C      4.388420   -0.615278    1.354584
C      3.543946   -0.002252    2.399323
O      2.679075   -0.703204    2.989976
N      3.731236    1.359444    2.786785
C     -4.828829   -1.221363    0.318897
C     -5.363526    0.048002    0.603391
C     -6.446396    0.178133    1.478382
C     -7.012005   -0.956139    2.067127
F     -8.063512   -0.828159    2.913407
C     -6.499259   -2.223253    1.775399
C     -5.416787   -2.357142    0.900229
H     -2.154082    1.483419   -2.718732
H     -0.615090    1.610107   -3.628362
H     -1.047807    2.856476   -2.402390
H      0.187752   -1.216072   -1.288621
H     -0.138879   -0.740130   -2.997388
H     -2.086970   -2.945040   -2.861669
H     -2.685949    0.742408    1.072047
H     -0.048024    1.677897    1.568177
H     -1.057363    3.027234    0.869106
H      1.664602    2.854061    0.458990
H      0.540579    3.569029   -0.721364
H      1.763415    1.376816   -3.077689
H      1.677546    0.032367    0.259384
H      2.184269   -0.372699   -1.420805
H      3.533169    1.809520    0.273689
H      3.903649    1.409241   -1.405370
H      5.256387   -0.449577   -1.955622
H      6.639142   -2.369879   -1.293343
H      5.146125   -2.117411    2.715886
H      4.527728    1.918207    2.406832
H      3.099356    1.796091    3.495035
H     -4.960178    0.934066    0.130895
H     -6.852033    1.158750    1.692443
H     -6.940912   -3.103018    2.225750
H     -5.029025   -3.344672    0.683880
