59
Lipophilicity 1712 4.119999885559082
C     -3.425267   -4.395775   -1.352234
C     -3.450322   -2.881201   -1.151485
C     -2.191138   -2.416060   -0.399495
N     -2.309010   -0.992032   -0.054859
C     -3.600015   -0.527588    0.470939
C     -4.746460   -1.126136   -0.358544
C     -6.099369   -0.783190    0.266754
O     -4.618139   -2.534696   -0.428753
C     -1.127965   -0.171203    0.077921
N     -1.230101    1.114544    0.514622
C     -0.143669    1.920685    0.639149
N     -0.332825    3.273373    1.074789
C     -0.300319    4.355411    0.084846
C     -1.000324    5.608814    0.625007
O     -0.561326    5.909079    1.935211
C     -0.976657    4.883262    2.817053
C     -0.241918    3.576696    2.506696
C      1.130611    1.415061    0.317478
C      2.310808    2.164468    0.436306
C      3.532255    1.599659    0.066409
C      3.576531    0.279288   -0.398597
N      4.825476   -0.289730   -0.820422
C      5.049380   -1.698795   -0.991021
C      5.936424   -2.142965   -1.984665
C      6.191682   -3.507902   -2.147608
C      5.575811   -4.440403   -1.307612
C      4.713943   -4.007046   -0.296172
C      4.451420   -2.642371   -0.134508
N      2.422264   -0.436465   -0.495874
C      1.217584    0.088536   -0.147281
N      0.096078   -0.666953   -0.254133
H     -4.314024   -4.708608   -1.942853
H     -2.509400   -4.695809   -1.908820
H     -3.449003   -4.921183   -0.371501
H     -3.463692   -2.417531   -2.165584
H     -2.064595   -3.002796    0.536017
H     -1.307261   -2.595376   -1.050979
H     -3.673106    0.581850    0.418924
H     -3.689343   -0.839712    1.535490
H     -4.732451   -0.677405   -1.381004
H     -6.176989   -1.210665    1.288428
H     -6.229147    0.318567    0.323504
H     -6.918902   -1.202003   -0.356885
H     -0.811691    4.032794   -0.849862
H      0.754516    4.604697   -0.163365
H     -2.110442    5.491825    0.584260
H     -0.742513    6.466333   -0.035376
H     -2.081970    4.731828    2.774471
H     -0.732422    5.189218    3.856665
H      0.828630    3.668200    2.799537
H     -0.702160    2.754953    3.101926
H      2.300167    3.177217    0.813601
H      4.439485    2.183679    0.145599
H      5.589953    0.365006   -1.104171
H      6.420026   -1.431164   -2.641845
H      6.863500   -3.843103   -2.927204
H      5.777929   -5.496253   -1.432506
H      4.252826   -4.728051    0.367866
H      3.806638   -2.324868    0.675751
