29
Lipophilicity 1893 0.7300000190734863
O      0.965270   -1.791321    2.004985
C      0.015684   -1.106554    1.250233
N     -1.302177   -1.289657    1.515187
C     -2.276502   -0.639184    0.831208
C     -3.616518   -0.873270    1.160294
C     -4.633877   -0.211879    0.472839
C     -4.318145    0.687262   -0.545579
C     -2.983803    0.930490   -0.885653
C     -1.938940    0.268975   -0.203415
C     -0.567334    0.469016   -0.505832
O     -0.141104    1.320091   -1.533042
C      0.414996   -0.222100    0.233835
C      1.855220   -0.022828   -0.055584
C      2.670760   -1.117324   -0.391411
C      4.029256   -0.927161   -0.662888
C      4.583547    0.354133   -0.600726
C      3.780294    1.447773   -0.266748
C      2.421284    1.262366    0.005377
H      0.684993   -2.427216    2.741982
H     -3.871108   -1.568344    1.951083
H     -5.668959   -0.395256    0.730772
H     -5.111453    1.199826   -1.074584
H     -2.801055    1.638811   -1.677335
H     -0.754449    1.844709   -2.138611
H      2.252863   -2.114736   -0.452040
H      4.652015   -1.773236   -0.923262
H      5.635252    0.499468   -0.811060
H      4.211186    2.439381   -0.216642
H      1.812802    2.117763    0.272267
