49
Lipophilicity 884 1.809999942779541
C      4.290762   -2.610998   -1.993736
O      3.851209   -1.268464   -1.813393
C      2.763842   -0.884045   -1.010015
C      2.017535   -1.820532   -0.279109
C      0.969609   -1.410996    0.551665
C      0.221468   -2.439509    1.367030
C     -1.210687   -2.670031    0.852157
C     -2.041318   -1.389461    0.567604
N     -1.861765   -0.934278   -0.817379
C     -2.792979   -0.044571   -1.451666
O     -3.806066    0.370780   -0.825371
C     -2.571820    0.408573   -2.858716
C     -1.728414   -0.261848    1.540043
C     -2.716322    0.153001    2.451653
C     -2.464580    1.193328    3.354023
O     -3.444410    1.604473    4.254629
C     -1.220207    1.823982    3.357356
C     -0.225570    1.421518    2.465661
C     -0.465651    0.388402    1.542841
C      0.627921   -0.043452    0.627702
C      1.336221    0.899680   -0.156849
O      0.951917    2.244377   -0.149675
C     -0.263410    2.691615   -0.741821
C      2.435680    0.477807   -0.947855
O      3.241685    1.353221   -1.701377
C      3.107591    2.766164   -1.797786
H      3.483126   -3.217046   -2.458236
H      4.588204   -3.051177   -1.018046
H      5.171737   -2.616285   -2.667957
H      2.263509   -2.872355   -0.333648
H      0.758020   -3.413601    1.365562
H      0.188005   -2.112211    2.429246
H     -1.173325   -3.301411   -0.062645
H     -1.743782   -3.270190    1.621850
H     -3.107308   -1.692328    0.676990
H     -1.062114   -1.298717   -1.382932
H     -1.762633   -0.177981   -3.341324
H     -3.504073    0.276204   -3.446020
H     -2.292682    1.481382   -2.864132
H     -3.685731   -0.330585    2.462546
H     -4.358449    1.167167    4.279393
H     -1.019601    2.622634    4.059919
H      0.741059    1.909465    2.503652
H     -0.338531    3.792408   -0.629799
H     -1.143480    2.225017   -0.254922
H     -0.271189    2.438977   -1.821224
H      2.145020    3.030455   -2.280537
H      3.928915    3.158551   -2.431388
H      3.193063    3.232890   -0.793966
