64
Lipophilicity 1488 0.3199999928474426
C     -0.260526   -2.400312    1.422599
O     -0.125569   -1.238343    0.633719
C     -0.559320   -0.089717    1.345306
C      0.637670    0.620212    2.029668
N      1.547336    1.317956    1.089707
C      2.531330    0.433149    0.428477
C      3.798298    0.333557    1.283186
N      4.802484   -0.533938    0.626622
C      4.824492   -1.872535    0.955588
O      3.988416   -2.352889    1.771068
C      5.768842   -2.733292    0.395982
C      6.692321   -2.249247   -0.517082
C      6.659092   -0.906969   -0.893638
C      7.576546   -0.426087   -1.839905
C      7.535869    0.905438   -2.246105
C      6.575251    1.769485   -1.717215
C      5.656836    1.305163   -0.766738
C      5.686808   -0.041641   -0.322028
C      6.525730    3.139857   -2.157293
N      6.485224    4.241264   -2.510559
C      0.832116    2.215334    0.159985
C     -0.272724    1.485175   -0.608390
C     -1.278274    0.871676    0.382676
N     -2.363596    0.156779   -0.314595
C     -3.359020    1.061736   -0.912770
C     -4.719232    0.691349   -0.410443
C     -5.139488    1.093787    0.866661
C     -6.402015    0.712876    1.326256
C     -7.222010   -0.077853    0.519848
O     -8.493599   -0.464107    0.959944
C     -9.245749   -1.515024    0.340709
C     -8.903781   -1.662443   -1.116209
O     -9.711880   -2.229718   -1.898160
N     -7.627336   -1.228517   -1.596664
C     -6.769194   -0.463775   -0.747904
N     -5.539014   -0.076136   -1.180378
H     -1.334204   -2.627660    1.605140
H      0.177224   -3.255558    0.868515
H      0.286218   -2.307037    2.386652
H     -1.302801   -0.343025    2.141600
H      1.203164   -0.108251    2.647902
H      0.235569    1.371540    2.743944
H      2.816916    0.824400   -0.571681
H      2.128883   -0.583956    0.260907
H      4.211773    1.339454    1.500338
H      3.535818   -0.058872    2.288758
H      5.784906   -3.781747    0.669302
H      7.421722   -2.929061   -0.942867
H      8.322215   -1.083916   -2.271926
H      8.248131    1.259791   -2.982017
H      4.919171    2.008424   -0.408461
H      1.540666    2.683475   -0.558200
H      0.383913    3.052585    0.739329
H     -0.788711    2.213188   -1.270079
H      0.175325    0.696479   -1.251243
H     -1.713837    1.687997    1.005893
H     -1.963018   -0.455516   -1.063078
H     -3.336882    0.973916   -2.022477
H     -3.168437    2.133143   -0.677545
H     -4.495666    1.694491    1.496293
H     -6.738087    1.022854    2.307234
H    -10.329828   -1.302816    0.458818
H     -9.016119   -2.472342    0.855147
H     -7.336360   -1.444228   -2.576741
