76
Lipophilicity 1901 3.9700000286102295
O     -3.985115   -2.322829    1.521014
C     -5.112728   -2.023402    0.743103
C     -4.690136   -1.483455   -0.621756
N     -3.871775   -0.266704   -0.480484
C     -4.522317    1.054524   -0.522522
C     -4.536338    1.707909    0.864040
O     -5.216826    2.933283    0.814354
C     -2.432790   -0.364760   -0.383965
N     -1.820974   -1.578539   -0.456339
C     -0.469786   -1.711220   -0.387494
N      0.114844   -3.024225   -0.467053
C     -0.509721   -4.141768    0.248338
C     -1.092372   -5.154475   -0.748931
C     -0.222626   -5.331576   -2.014430
C      1.202165   -4.792784   -1.838953
C      1.170811   -3.305099   -1.453959
C      0.317792   -0.562431   -0.221400
N      1.666164   -0.640187   -0.090517
C      2.420277    0.470909    0.124096
N      1.812023    1.685875    0.206421
C      0.465262    1.830004    0.076549
N     -0.115495    3.143310    0.187408
C      0.452891    4.107699    1.137483
C      1.148549    5.250839    0.382106
C      0.410273    5.662339   -0.911170
C     -1.035913    5.153159   -0.954408
C     -1.071576    3.622061   -0.826735
C     -0.321242    0.685671   -0.139587
N     -1.674163    0.754013   -0.225543
N      3.853476    0.362537    0.253072
C      4.637330    1.480540    0.804333
C      4.312001    1.712218    2.285089
O      4.485567    0.532781    3.023538
C      4.542348   -0.817266   -0.289142
C      4.552153   -1.966434    0.719046
O      5.113211   -3.096714    0.109920
H     -4.319287   -2.484424    2.441088
H     -5.715426   -2.945266    0.597555
H     -5.747229   -1.267786    1.256721
H     -5.603549   -1.269127   -1.216743
H     -4.138339   -2.268067   -1.183731
H     -5.572911    0.965092   -0.874505
H     -3.994900    1.709655   -1.250059
H     -3.503479    1.864679    1.245666
H     -5.061047    1.043760    1.580940
H     -4.607222    3.577865    0.369903
H      0.260264   -4.643406    0.871152
H     -1.303097   -3.786773    0.940437
H     -1.203594   -6.133329   -0.235130
H     -2.109703   -4.821852   -1.053342
H     -0.700494   -4.794897   -2.863290
H     -0.176532   -6.409567   -2.283488
H      1.725445   -5.376453   -1.049452
H      1.768483   -4.916792   -2.787962
H      0.983738   -2.710860   -2.375331
H      2.159881   -3.015956   -1.044581
H      1.168504    3.620574    1.837416
H     -0.372787    4.525170    1.755522
H      1.226217    6.129283    1.057559
H      2.183335    4.935190    0.122652
H      0.413263    6.770774   -1.000893
H      0.955974    5.257207   -1.792493
H     -1.612942    5.612075   -0.122370
H     -1.512642    5.462059   -1.909041
H     -2.101134    3.306874   -0.555942
H     -0.815605    3.181724   -1.816800
H      5.727551    1.285544    0.715409
H      4.421773    2.404758    0.225995
H      3.259595    2.051209    2.394983
H      4.958535    2.524656    2.690075
H      5.464379    0.433535    3.164440
H      4.046239   -1.143340   -1.230944
H      5.592267   -0.568894   -0.559617
H      3.515793   -2.204449    1.049009
H      5.160998   -1.675387    1.604112
H      5.204437   -3.790864    0.819557
