67
Lipophilicity 703 1.159999966621399
C      2.255121    0.945146   -2.674796
C      3.275093   -0.108295   -2.256820
O      3.489004   -0.069961   -0.857444
C      4.617328    0.726024   -0.538232
O      5.808314    0.047350   -0.905874
C      6.570941   -0.276288    0.191538
O      7.660928   -0.899196    0.104896
C      5.977613    0.173627    1.462934
C      4.732889    0.952264    0.997154
N      3.537779    0.493167    1.712943
C      2.534811    1.389640    2.216622
O      2.751295    2.631914    2.235584
C      1.219784    0.871341    2.752154
C      1.336084    0.424722    4.221656
C      1.937756   -0.973407    4.364425
C      1.115658   -1.985680    3.572802
N      0.979460   -1.553595    2.180809
N      0.684071   -0.200173    1.890553
C     -0.019508    0.165665    0.686270
O      0.179805    1.301319    0.172104
C     -1.008643   -0.781053    0.048546
C     -0.283575   -1.898230   -0.718175
C      0.245028   -2.991458    0.210604
C      1.304611   -2.478621    1.133286
O      2.483823   -2.908741    1.025509
N     -1.895422   -0.059076   -0.872813
C     -3.299051   -0.345270   -0.981800
O     -3.824550   -1.215083   -0.236190
C     -4.108306    0.322719   -2.025822
N     -3.519425    0.528305   -3.236534
C     -4.175598    1.077660   -4.289035
C     -5.510971    1.448491   -4.164331
C     -6.161531    1.277650   -2.937412
C     -7.501224    1.670835   -2.793338
C     -8.143010    1.540604   -1.562178
C     -7.452442    1.030162   -0.463348
C     -6.119531    0.630225   -0.590653
C     -5.458944    0.722354   -1.835264
H      2.081937    0.882269   -3.769692
H      1.291440    0.771578   -2.154941
H      2.622765    1.962567   -2.429500
H      4.207400    0.009391   -2.855471
H      2.864245   -1.106987   -2.511901
H      4.575411    1.715979   -1.048272
H      6.685667    0.833551    2.009394
H      5.719186   -0.709885    2.086553
H      4.911426    2.034131    1.188940
H      3.354368   -0.532907    1.734623
H      0.498893    1.721222    2.747161
H      0.320177    0.422268    4.675742
H      1.948212    1.152824    4.798022
H      1.938164   -1.263039    5.437120
H      2.991578   -0.979252    4.014907
H      0.102786   -2.076265    4.021601
H      1.606761   -2.982248    3.635282
H     -1.615035   -1.224118    0.868700
H     -0.999263   -2.378457   -1.421092
H      0.545196   -1.479314   -1.329486
H      0.660704   -3.814535   -0.410083
H     -0.586871   -3.418315    0.810166
H     -1.464831    0.571174   -1.586396
H     -3.659423    1.216437   -5.230029
H     -6.026081    1.877697   -5.015623
H     -8.048467    2.087896   -3.630507
H     -9.174912    1.849817   -1.456393
H     -7.949296    0.951171    0.495281
H     -5.617606    0.278292    0.297943
