53
Lipophilicity 1850 2.5
C      5.858934   -1.323659   -0.460496
C      4.541216   -1.446495    0.304043
C      3.884196   -0.085950    0.582527
C      3.304142    0.557815   -0.688132
C      2.605604    1.901983   -0.411582
C      1.370872    1.793855    0.499684
N      0.480113    0.697549    0.061139
C     -0.453066    1.123027   -1.002109
C     -1.266537   -0.069425   -1.531804
C     -1.935088   -0.875478   -0.387486
C     -2.600477   -2.146615   -0.978877
C     -0.861505   -1.288972    0.674920
C      0.206805   -2.296819    0.190050
C     -0.182713   -0.009015    1.189257
C     -1.201304    0.859611    1.965991
C     -2.594792    0.876761    1.376992
C     -3.533012    1.745312    1.956196
C     -4.828837    1.830603    1.454159
C     -5.205305    1.060106    0.357360
O     -6.497378    1.178345   -0.150781
C     -4.285666    0.181522   -0.227887
C     -2.977562    0.037490    0.293290
H      6.547917   -0.625678    0.060889
H      5.682329   -0.966158   -1.495775
H      6.344777   -2.320389   -0.519123
H      3.841284   -2.101027   -0.259913
H      4.750170   -1.940516    1.277750
H      3.066130   -0.260156    1.311955
H      4.619638    0.601236    1.055117
H      4.127076    0.753479   -1.407203
H      2.595204   -0.142780   -1.179901
H      2.299095    2.343439   -1.383834
H      3.332409    2.607473    0.046917
H      1.726282    1.634545    1.541433
H      0.833893    2.768920    0.501550
H      0.117727    1.545007   -1.856641
H     -1.131753    1.924882   -0.638785
H     -0.596397   -0.724223   -2.128705
H     -2.042708    0.311014   -2.232158
H     -3.158646   -2.696920   -0.191384
H     -1.851939   -2.827690   -1.429867
H     -3.287866   -1.904349   -1.813476
H     -1.381335   -1.777261    1.531751
H     -0.239153   -3.298398    0.024559
H      0.987334   -2.430455    0.969230
H      0.709692   -1.956476   -0.737071
H      0.598036   -0.316674    1.921947
H     -0.826389    1.899933    2.063973
H     -1.284357    0.453416    2.997997
H     -3.254051    2.367761    2.797913
H     -5.538414    2.509739    1.909629
H     -6.806075    0.634875   -0.948429
H     -4.608549   -0.368118   -1.097286
