31
Lipophilicity 980 2.950000047683716
C     -1.444468    1.477131    1.734678
C     -0.304829    0.774412    1.057333
C     -0.487550    0.025297   -0.127998
C      0.627970   -0.622860   -0.688322
O      0.501081   -1.301877   -1.745443
C      1.883155   -0.498705   -0.071529
C      3.036597   -1.118974   -0.586110
C      4.266045   -0.961675    0.060662
C      4.359749   -0.187718    1.221699
O      5.593372   -0.041996    1.852193
C      3.215355    0.433177    1.740287
C      1.980034    0.281257    1.100772
O      0.903510    0.872898    1.605148
C     -1.816883   -0.091426   -0.771770
C     -2.436434    1.037131   -1.332965
C     -3.689466    0.921139   -1.942684
C     -4.328339   -0.320751   -2.000128
C     -3.713925   -1.449361   -1.450122
C     -2.460967   -1.337525   -0.839377
H     -1.148568    1.783008    2.760338
H     -1.720203    2.386597    1.162335
H     -2.323812    0.803748    1.814678
H      2.991528   -1.722744   -1.484183
H      5.148871   -1.442161   -0.341687
H      5.695388    0.511733    2.694733
H      3.285017    1.032548    2.639642
H     -1.946016    2.002264   -1.305526
H     -4.163863    1.793435   -2.373344
H     -5.297983   -0.408961   -2.472819
H     -4.208686   -2.410852   -1.496773
H     -1.995680   -2.218188   -0.413718
