41
Lipophilicity 1246 1.7599999904632568
C     -3.964989   -1.079430    1.360950
C     -4.805361    0.053248    0.712911
N     -4.043283    0.748144   -0.355526
C     -3.652673   -0.232424   -1.397906
C     -2.789810   -1.374194   -0.801538
C     -2.570783   -1.113166    0.702671
C     -1.926289    0.282833    0.910036
C     -2.822795    1.361839    0.224292
C     -0.455813    0.313928    0.506844
C     -0.037992    0.512959   -0.823793
C      1.319428    0.498051   -1.155094
C      2.294341    0.272899   -0.169175
C      1.880190    0.056161    1.155302
C      0.522948    0.069535    1.486426
C      3.737190    0.256643   -0.521841
C      4.688039    0.854608    0.327162
C      6.045657    0.838423   -0.007153
C      6.469447    0.226177   -1.188654
C      5.536326   -0.371118   -2.038898
C      4.177313   -0.357159   -1.710178
H     -3.867692   -0.906178    2.455208
H     -4.474235   -2.058889    1.224725
H     -5.742809   -0.369155    0.288523
H     -5.113072    0.786495    1.490821
H     -4.565774   -0.658388   -1.869280
H     -3.094221    0.283178   -2.209356
H     -1.820083   -1.455871   -1.333542
H     -3.308822   -2.348330   -0.939384
H     -1.948831   -1.915353    1.157148
H     -1.964554    0.499449    2.002912
H     -2.285576    1.932709   -0.560636
H     -3.121105    2.126452    0.975916
H     -0.752870    0.675524   -1.617045
H      1.606807    0.676012   -2.183782
H      2.605289   -0.146104    1.933628
H      0.235780   -0.117420    2.513886
H      4.380234    1.349534    1.239662
H      6.769386    1.304171    0.649235
H      7.520868    0.214487   -1.445274
H      5.866431   -0.848772   -2.952368
H      3.473755   -0.841508   -2.375540
