76
Lipophilicity 845 2.3499999046325684
C      6.224049   -0.891987    1.586438
C      5.563663    0.414366    2.041481
N      5.725284    1.485870    1.036993
C      7.075023    1.996562    0.745120
C      7.512653    3.020222    1.790658
C      4.583065    2.216145    0.524752
O      4.721526    3.429965    0.210529
C      3.246258    1.596003    0.339403
C      2.088655    2.373528    0.501162
C      0.824221    1.813509    0.307607
C      0.678970    0.464227   -0.075554
C      1.843701   -0.319999   -0.204550
C      3.108845    0.250959   -0.041737
C     -0.718596   -0.149105   -0.159749
N     -1.727834    0.853761   -0.597125
C     -1.617126    1.282110   -2.002034
C     -2.485953    2.531066   -2.252504
N     -3.472674    2.781720   -1.174459
C     -2.926640    3.563970   -0.037868
C     -3.970943    4.558782    0.459358
O     -3.417457    5.325747    1.507832
C     -4.384251    6.237422    1.983213
C     -4.127831    1.526872   -0.743947
C     -3.112824    0.457331   -0.275565
C     -0.802705   -1.451238   -0.959864
C     -0.250906   -1.569127   -2.250962
C     -0.376504   -2.762071   -2.966283
C     -1.046826   -3.852451   -2.406402
C     -1.586621   -3.763120   -1.112883
N     -2.308029   -4.857140   -0.516280
C     -1.901413   -6.237244   -0.621453
O     -0.851044   -6.535964   -1.252682
C     -2.666257   -7.368527    0.026211
C     -3.198639   -7.107292    1.426664
C     -4.158424   -7.181173    0.247293
C     -1.474981   -2.556007   -0.408744
H      7.318627   -0.847966    1.761689
H      5.817846   -1.745382    2.173900
H      6.039370   -1.080138    0.506588
H      6.019589    0.729707    3.006379
H      4.489124    0.222114    2.249740
H      7.812917    1.167695    0.714667
H      7.092015    2.467770   -0.261922
H      8.481977    3.466945    1.488429
H      7.640989    2.533207    2.778890
H      6.765347    3.834208    1.880206
H      2.161666    3.410302    0.801791
H     -0.043007    2.437472    0.474348
H      1.785742   -1.376623   -0.436953
H      3.978406   -0.365052   -0.213476
H     -0.937839   -0.399457    0.902598
H     -0.563201    1.527245   -2.257532
H     -1.959242    0.471366   -2.680919
H     -3.040599    2.389737   -3.206453
H     -1.835800    3.418828   -2.419575
H     -2.029388    4.144551   -0.338987
H     -2.620372    2.910042    0.808145
H     -4.863426    3.995463    0.813755
H     -4.265982    5.213253   -0.392582
H     -4.696558    6.945304    1.183273
H     -5.268285    5.706783    2.404603
H     -3.932713    6.836297    2.800530
H     -4.711307    1.117939   -1.599275
H     -4.867333    1.730358    0.065118
H     -3.369127   -0.516104   -0.749127
H     -3.211819    0.333043    0.824729
H      0.282112   -0.740743   -2.699049
H      0.040390   -2.840036   -3.961061
H     -1.162387   -4.750674   -2.996961
H     -3.069603   -4.598865    0.147827
H     -2.343084   -8.414381   -0.156060
H     -3.230298   -8.003827    2.079082
H     -3.058172   -6.089831    1.843963
H     -4.746798   -8.122702    0.207133
H     -4.598594   -6.213184   -0.065805
H     -1.912616   -2.482355    0.579336
