52
Lipophilicity 790 2.9000000953674316
F      7.384687    0.810788   -1.422213
C      6.101897    1.316052   -1.548546
F      6.081899    2.616104   -1.077064
F      5.768594    1.318338   -2.892685
C      5.118266    0.486577   -0.760983
C      3.765174    0.452802   -1.135381
C      2.838322   -0.297604   -0.397267
C      1.389192   -0.317914   -0.790839
O      0.690331    0.648983   -0.025748
C     -0.361525    0.067225    0.723093
C     -1.631231   -0.152278   -0.147262
N     -2.513078    1.053548   -0.191472
C     -1.807020    2.240861   -0.728537
C     -2.709221    3.492775   -0.696173
N     -4.108174    3.149710   -0.415756
C     -4.539836    2.063468   -1.295827
C     -3.722523    0.786350   -1.016210
C     -2.379197   -1.347238    0.423105
C     -2.385784   -2.574240   -0.263553
C     -3.048954   -3.680682    0.275265
C     -3.709612   -3.573880    1.501393
C     -3.703054   -2.361686    2.195586
C     -3.036480   -1.253426    1.664312
C      3.258391   -0.974774    0.756082
C      4.594665   -0.899417    1.183477
C      5.522026   -0.180469    0.409075
C      5.043212   -1.647222    2.415454
F      6.123071   -1.013863    3.007554
F      4.019888   -1.713332    3.346156
F      5.412379   -2.931304    2.059840
H      3.432409    1.006186   -2.005260
H      1.284718   -0.050691   -1.864183
H      0.999175   -1.359789   -0.701409
H     -0.022353   -0.873353    1.219785
H     -0.614218    0.751980    1.560370
H     -1.305940   -0.397302   -1.184854
H     -1.468271    2.048792   -1.772615
H     -0.914012    2.480669   -0.117870
H     -2.354232    4.184713    0.098705
H     -2.633311    4.032936   -1.667529
H     -4.695096    3.990994   -0.624371
H     -5.619649    1.861045   -1.125870
H     -4.421919    2.364402   -2.362976
H     -4.386465    0.075799   -0.477665
H     -3.444678    0.316976   -1.987582
H     -1.875225   -2.676443   -1.213338
H     -3.048740   -4.621888   -0.258253
H     -4.222047   -4.431986    1.915917
H     -4.209975   -2.281660    3.148727
H     -3.033749   -0.321562    2.216119
H      2.538824   -1.549674    1.327677
H      6.558449   -0.134397    0.721600
