43
Lipophilicity 667 3.559999942779541
C      5.217961    1.476128   -0.512235
C      4.336426    0.257363   -0.814038
C      2.872018    0.701439   -1.056967
C      1.891005   -0.449666   -0.811372
C      1.939148   -0.952563    0.660723
C      0.828561   -0.321186    1.528312
C     -0.536919   -0.795670    1.119320
O     -0.903666   -1.961874    1.429173
N     -1.414822    0.070323    0.383990
C     -2.613590   -0.394174   -0.260435
C     -2.580282   -1.574758   -1.023708
C     -3.717147   -2.018083   -1.701970
C     -4.903374   -1.287569   -1.637852
C     -4.961153   -0.107726   -0.890973
N     -6.124239    0.595745   -0.832901
C     -6.233832    1.741877   -0.112257
C     -5.138626    2.226780    0.602249
C     -3.929286    1.530589    0.565885
C     -3.815553    0.351155   -0.193665
C      3.321900   -0.711923    1.321106
C      4.460329   -0.815924    0.300417
H      5.122881    2.227637   -1.325013
H      6.284275    1.171328   -0.447438
H      4.919926    1.946051    0.449522
H      4.716281   -0.196553   -1.756842
H      2.599135    1.544856   -0.384100
H      2.763852    1.061724   -2.103231
H      2.157459   -1.288783   -1.491622
H      0.869488   -0.124777   -1.099944
H      1.772682   -2.053848    0.641452
H      0.885170    0.787409    1.468249
H      0.983537   -0.601723    2.593353
H     -1.160084    1.079623    0.297686
H     -1.662482   -2.141859   -1.114086
H     -3.675133   -2.927232   -2.287869
H     -5.777882   -1.639929   -2.170982
H     -7.175163    2.274422   -0.089245
H     -5.227656    3.134774    1.184670
H     -3.099262    1.915371    1.142595
H      3.481510   -1.460196    2.127907
H      3.362149    0.296560    1.790208
H      4.427332   -1.827940   -0.160797
H      5.437121   -0.737199    0.826134
