34
Lipophilicity 700 2.9200000762939453
F     -2.926057    2.113349    2.043515
C     -3.642675    1.167156    1.385036
C     -5.035687    1.160618    1.514455
C     -5.802284    0.222841    0.819118
C     -5.179216   -0.710447   -0.011719
C     -3.788008   -0.710076   -0.147172
C     -3.003536    0.225426    0.552612
C     -1.527350    0.212437    0.405606
C     -0.699614    0.266378    1.531594
C      0.688917    0.246575    1.396579
C      1.299836    0.170719    0.123557
C      0.456912    0.105482   -1.016312
C     -0.941738    0.126343   -0.863640
C      1.040111    0.012962   -2.370710
O      0.298568   -0.043605   -3.389789
C      2.493685   -0.015826   -2.534566
O      2.987999   -0.102395   -3.692027
C      3.365701    0.058386   -1.345279
C      4.763576    0.038212   -1.506784
C      5.605823    0.113476   -0.400809
C      5.066867    0.211333    0.877314
C      3.682896    0.232337    1.058923
C      2.799971    0.153261   -0.045548
H     -5.523178    1.888224    2.150586
H     -6.879747    0.221505    0.921882
H     -5.774459   -1.436847   -0.549825
H     -3.322449   -1.449952   -0.786623
H     -1.128854    0.305901    2.525315
H      1.257409    0.285141    2.309808
H     -1.581666    0.088915   -1.737214
H      5.208029   -0.034698   -2.491604
H      6.679753    0.097762   -0.535506
H      5.725019    0.272260    1.734754
H      3.335445    0.313707    2.074472
