49
Lipophilicity 799 2.2699999809265137
C     -8.648032   -0.325841   -0.964567
O     -7.534509    0.061684   -1.762882
C     -6.258155    0.347550   -1.255914
C     -5.956672    0.273217    0.117632
C     -4.668237    0.568724    0.573405
C     -3.667515    0.954579   -0.330998
C     -2.274690    1.230361    0.154103
O     -1.530319    0.015597    0.149901
C     -0.187252   -0.098088    0.541507
C      0.557788    1.009431    0.986997
C      1.892572    0.857124    1.364394
C      2.511671   -0.399303    1.296945
C      3.954401   -0.556434    1.710305
C      4.870965    0.253182    0.820445
C      5.356229    1.488581    1.275638
N      6.155508    2.247033    0.484207
C      6.500376    1.834065   -0.761071
N      7.341435    2.647345   -1.575598
N      6.041428    0.646346   -1.231333
C      5.237843   -0.155291   -0.482499
N      4.791309   -1.392837   -1.046179
C      1.765667   -1.508601    0.868647
C      0.418295   -1.362609    0.483889
O     -0.351879   -2.449349    0.039696
C      0.128377   -3.784544   -0.079179
C     -3.963801    1.011872   -1.700975
C     -5.251956    0.716493   -2.156398
H     -9.526858   -0.486832   -1.621910
H     -8.891710    0.474896   -0.234715
H     -8.424162   -1.274025   -0.431593
H     -6.708322   -0.015326    0.839573
H     -4.450894    0.496105    1.632032
H     -2.307945    1.647752    1.184310
H     -1.782919    1.975355   -0.509091
H      0.114269    1.993746    1.046567
H      2.445099    1.722050    1.709321
H      4.268381   -1.621830    1.704290
H      4.052927   -0.227434    2.767897
H      5.095598    1.853154    2.260992
H      7.696972    3.562470   -1.220095
H      7.609607    2.335417   -2.535299
H      4.200952   -2.071420   -0.521499
H      5.072981   -1.649044   -2.018426
H      2.236501   -2.481531    0.839985
H     -0.689270   -4.431187   -0.458142
H      0.974406   -3.823575   -0.797557
H      0.450503   -4.164325    0.913373
H     -3.197916    1.284708   -2.416566
H     -5.469049    0.770593   -3.215719
