61
Lipophilicity 970 1.7899999618530273
O     -3.556149    0.592451   -1.141911
C     -3.577453   -0.096092   -0.087918
N     -4.751960   -0.852552    0.260790
C     -5.011142   -1.189117    1.667977
C     -6.518250   -1.326333    1.907793
O     -7.114932   -2.177152    0.946991
C     -7.024302   -1.576317   -0.331535
C     -5.564481   -1.482443   -0.785740
N     -2.458297   -0.042449    0.806517
C     -1.590949   -1.199333    0.964239
C     -0.625510   -1.266555   -0.206611
N      0.314977   -0.137454   -0.258975
C      1.497119   -0.251748   -0.912453
C      2.056817    0.989874   -1.159361
C      3.266745    1.250451   -1.966694
C      4.382972    0.512087   -1.981958
C      5.224946    0.990409   -3.079151
O      6.336393    0.501664   -3.412977
N      4.605567    2.071057   -3.754947
C      3.372609    2.219245   -3.066278
O      2.456432    2.997769   -3.441081
C      4.677598   -0.654639   -1.129064
C      5.042414   -1.916048   -1.573202
N      5.157068   -2.758423   -0.518295
C      4.863131   -1.977462    0.543303
C      4.884643   -2.380037    1.876099
C      4.615867   -1.409705    2.858706
C      4.333767   -0.079784    2.487852
C      4.311457    0.266747    1.128147
N      4.570861   -0.705979    0.210469
C      1.173663    1.905731   -0.628089
C      1.240426    3.297974   -0.602213
C      0.178767    3.996436   -0.020346
C     -0.909676    3.301776    0.539034
C     -0.962493    1.888973    0.536180
C     -2.037855    1.231808    1.368784
C      0.113297    1.199861   -0.083127
H     -4.623886   -0.380122    2.331174
H     -4.496499   -2.141147    1.929034
H     -6.687368   -1.749583    2.922388
H     -6.997022   -0.320346    1.905934
H     -7.502353   -0.568535   -0.343046
H     -7.585928   -2.195711   -1.063483
H     -5.173161   -2.502367   -0.983507
H     -5.514239   -0.899475   -1.725584
H     -2.200341   -2.130214    0.997427
H     -1.021780   -1.137650    1.917270
H     -1.199372   -1.308876   -1.157349
H     -0.050471   -2.213531   -0.121519
H      1.891234   -1.189500   -1.287275
H      4.940133    2.581541   -4.605066
H      5.193713   -2.211790   -2.603873
H      5.120426   -3.401253    2.151819
H      4.640418   -1.683353    3.907865
H      4.149585    0.672743    3.249746
H      4.119221    1.287291    0.826463
H      2.084608    3.832306   -1.012356
H      0.199009    5.076165    0.010300
H     -1.693318    3.876347    1.022144
H     -2.923534    1.893467    1.480677
H     -1.643161    1.078903    2.395875
