33
Lipophilicity 850 3.0
C     -1.074105    0.961394   -2.330566
C     -1.195585   -0.084607   -1.215479
N      0.124324   -0.387881   -0.649899
C      0.864951    0.444097    0.311454
C      2.225946   -0.188658    0.347531
C      3.331904    0.188678    1.110722
C      4.522703   -0.546658    0.975545
C      4.590101   -1.637722    0.084641
C      3.467317   -2.001574   -0.677296
C      2.300519   -1.255345   -0.520041
C      1.014096   -1.382759   -1.154159
O      0.710066   -2.231085   -2.034484
C     -2.171550    0.322099   -0.124592
C     -3.055929   -0.636423    0.404221
C     -3.939231   -0.296964    1.433342
C     -3.942211    0.997905    1.955547
C     -3.057771    1.954566    1.453517
C     -2.172636    1.621016    0.424004
H     -2.081356    1.233928   -2.711801
H     -0.558328    1.877179   -1.976075
H     -0.483974    0.541038   -3.172532
H     -1.589526   -1.005021   -1.702140
H      0.941631    1.490185   -0.052391
H      0.387535    0.399439    1.313091
H      3.275062    1.028871    1.790480
H      5.392919   -0.272619    1.557635
H      5.511361   -2.197053   -0.013455
H      3.508658   -2.836246   -1.364980
H     -3.061967   -1.649469    0.021391
H     -4.619096   -1.040361    1.829168
H     -4.625315    1.258183    2.753722
H     -3.053798    2.955113    1.866358
H     -1.486714    2.376756    0.067521
