44
Lipophilicity 1501 2.059999942779541
C     -6.489599    2.391063    2.070887
O     -5.240881    2.292511    1.393414
C     -4.620758    1.082819    1.047946
C     -5.185437   -0.168713    1.349545
C     -4.519110   -1.332749    0.963483
N     -3.333210   -1.253704    0.306016
C     -2.754402   -0.057977    0.005203
N     -1.496903   -0.012630   -0.686616
C     -0.778329   -1.230631   -1.084613
C     -0.228800   -1.963720    0.169977
C      1.208292   -2.457264   -0.014660
N      2.068009   -1.323140   -0.390932
C      1.615671   -0.407071   -1.454706
C      0.320857   -0.896417   -2.119592
C      3.292439   -1.060104    0.333825
O      3.630061   -1.799096    1.295178
C      4.168021    0.075887   -0.002776
C      4.358689    1.106409    0.930145
C      5.211683    2.171000    0.632421
C      5.890424    2.203557   -0.588863
C      5.722863    1.168439   -1.510792
C      4.871190    0.101056   -1.215613
C     -3.396157    1.130892    0.374476
H     -6.761010    3.461534    2.176211
H     -6.411813    1.940316    3.083608
H     -7.284479    1.881912    1.483834
H     -6.127640   -0.251612    1.873170
H     -4.945470   -2.302590    1.186179
H     -1.092871    0.921834   -0.924187
H     -1.497991   -1.904772   -1.600380
H     -0.243065   -1.280859    1.049668
H     -0.882241   -2.829278    0.415077
H      1.244317   -3.229956   -0.813721
H      1.541901   -2.939471    0.929001
H      2.391028   -0.332003   -2.243861
H      1.450723    0.603918   -1.023771
H      0.551431   -1.812424   -2.709152
H     -0.044216   -0.133892   -2.843787
H      3.835076    1.093493    1.876996
H      5.354564    2.964777    1.353926
H      6.551392    3.028272   -0.817298
H      6.246488    1.199817   -2.459533
H      4.759073   -0.702849   -1.933916
H     -2.949814    2.088975    0.138580
