31
Lipophilicity 1081 2.299999952316284
N     -2.864222   -3.127364    0.266684
C     -2.533612   -1.732952    0.365440
C     -3.579069   -0.826909    0.616695
C     -3.284367    0.525607    0.682017
N     -4.173785    1.515349    0.903308
N     -3.469746    2.638233    0.877722
C     -2.184418    2.317142    0.644061
O     -1.261476    3.169153    0.558859
N     -2.029737    0.981101    0.514485
C     -0.960162    0.160666    0.279603
C      0.347991    0.658172    0.119517
C      1.427011   -0.211213   -0.104718
C      1.188830   -1.591680   -0.156577
C     -0.099620   -2.103221   -0.001266
C     -1.197477   -1.244896    0.206976
C      2.802766    0.321903   -0.274823
C      3.978870   -0.375344   -0.045925
C      5.011505    0.495411   -0.328203
C      4.429902    1.682941   -0.719379
N      3.089838    1.575153   -0.685270
H     -2.209202   -3.848234   -0.100273
H     -3.832992   -3.452196    0.483998
H     -4.598618   -1.169189    0.744768
H     -3.866249    3.594121    1.016176
H      0.543181    1.713923    0.192036
H      2.000330   -2.285847   -0.331949
H     -0.205619   -3.175286   -0.037940
H      4.083619   -1.394297    0.301528
H      6.070542    0.287158   -0.256156
H      4.959964    2.577686   -1.018191
H      2.416023    2.324907   -0.955912
