50
Lipophilicity 1885 3.700000047683716
O     -4.754352   -0.643469   -1.204302
C     -4.538382   -0.207340   -0.040291
N     -3.202274   -0.177775    0.491087
C     -2.047522   -0.711385   -0.181045
C     -0.779049   -0.580518    0.402837
C      0.352210   -1.100060   -0.249865
C      0.181646   -1.746672   -1.484816
C     -1.095706   -1.861106   -2.034275
N     -2.168784   -1.348123   -1.378671
C      1.702560   -0.968277    0.355136
C      1.887186   -1.139438    1.737043
C      3.165185   -1.017905    2.284115
N      4.224843   -0.730631    1.484777
C      4.086249   -0.543613    0.143087
N      5.231857   -0.265223   -0.678674
C      6.509547    0.147342   -0.164624
C      6.610651    1.008252    0.944264
C      7.865475    1.415052    1.408766
C      9.026348    0.979637    0.764598
C      8.934081    0.143886   -0.351205
C      7.681200   -0.264425   -0.819174
C      2.820131   -0.672237   -0.444306
C     -5.679402    0.354933    0.780510
C     -7.017225   -0.379544    0.524125
C     -7.875445    0.333633   -0.536914
O     -7.059283    1.017790   -1.465042
C     -6.466212    2.155018   -0.857329
C     -5.834003    1.863065    0.525410
H     -3.063414    0.266748    1.427011
H     -0.676188   -0.061294    1.347766
H      1.024435   -2.176094   -2.011659
H     -1.235114   -2.362508   -2.982657
H      1.055787   -1.386120    2.385257
H      3.316109   -1.158321    3.346066
H      5.156068   -0.450432   -1.705020
H      5.723651    1.386012    1.435123
H      7.937405    2.075731    2.263096
H      9.996545    1.296882    1.124519
H      9.833333   -0.185919   -0.855268
H      7.622237   -0.910388   -1.686213
H      2.708333   -0.519951   -1.510794
H     -5.420275    0.212546    1.853216
H     -6.831364   -1.432794    0.217987
H     -7.599339   -0.421906    1.470835
H     -8.479716   -0.421595   -1.082431
H     -8.597139    1.031314   -0.051208
H     -7.216783    2.971730   -0.770769
H     -5.669241    2.523494   -1.537465
H     -6.495203    2.284766    1.314505
H     -4.851658    2.377233    0.616623
