30
Lipophilicity 1139 3.7699999809265137
O      0.598232   -2.463550   -0.832063
C      0.916174   -1.268821   -0.575512
C     -0.135383   -0.313556   -0.058804
C     -1.523017   -0.956929    0.074141
C     -2.522314    0.044105    0.589730
C     -2.711155    0.209806    1.972185
C     -3.615447    1.163504    2.450027
C     -4.328874    1.963674    1.553309
C     -4.136170    1.814390    0.177107
C     -3.232861    0.861923   -0.305032
C      2.323453   -0.830325   -0.787179
C      3.278841   -1.741656   -1.280659
C      4.603701   -1.344024   -1.484231
C      4.994336   -0.034877   -1.199204
C      4.060824    0.879973   -0.709720
C      2.734070    0.489133   -0.503745
H      0.184124    0.060525    0.938325
H     -0.205531    0.548894   -0.757081
H     -1.855029   -1.341227   -0.915691
H     -1.469861   -1.824133    0.768985
H     -2.157615   -0.397379    2.677781
H     -3.760515    1.284635    3.515747
H     -5.027389    2.702249    1.924841
H     -4.684227    2.439246   -0.516193
H     -3.085738    0.762755   -1.373425
H      3.004113   -2.763451   -1.510609
H      5.328381   -2.052838   -1.863772
H      6.020514    0.270725   -1.357540
H      4.365352    1.894953   -0.488897
H      2.039011    1.224733   -0.122822
