41
Lipophilicity 2031 2.950000047683716
C      5.950034   -0.182587    0.337247
O      4.897931    0.431307   -0.400248
C      3.546696    0.057840   -0.321003
C      3.108261   -0.982345    0.518668
C      1.755464   -1.328096    0.572483
N      1.351400   -2.327369    1.397363
C      0.051258   -2.702438    1.492232
C     -0.934547   -2.062910    0.725473
C     -2.339793   -2.529982    0.808327
O     -3.065820   -2.531386   -0.221839
N     -2.888347   -2.990001    2.045279
C     -0.548002   -1.010192   -0.138091
N     -1.531987   -0.305495   -0.913615
C     -2.536101    0.548044   -0.331706
C     -2.486865    0.915100    1.028000
C     -3.469912    1.746508    1.572097
C     -4.507143    2.224731    0.768426
F     -5.459196    3.031389    1.298603
C     -4.561493    1.873945   -0.582602
C     -3.581150    1.042058   -1.133552
F     -3.657148    0.710192   -2.447023
C      0.813211   -0.641312   -0.221214
C      1.253529    0.404055   -1.054078
C      2.617027    0.754126   -1.107684
O      3.088087    1.790362   -1.930244
C      2.267418    2.585522   -2.780035
H      6.021949   -1.259455    0.075727
H      5.772350   -0.063856    1.426986
H      6.909398    0.310302    0.078393
H      3.810510   -1.527097    1.135901
H     -0.205029   -3.523823    2.148208
H     -2.352773   -2.912128    2.937824
H     -3.866282   -3.354140    2.080772
H     -1.465186   -0.378222   -1.953895
H     -1.688063    0.567770    1.669687
H     -3.424670    2.021964    2.617936
H     -5.365176    2.246713   -1.204684
H      0.540316    0.948462   -1.656313
H      2.903307    3.323288   -3.310734
H      1.513260    3.134962   -2.177833
H      1.763279    1.944194   -3.533553
