45
Lipophilicity 805 3.0
C     -4.869286    0.479155    2.756196
C     -4.258151    1.599900    1.922339
O     -3.473561    1.066561    0.855693
C     -3.971390    0.493282   -0.329019
C     -5.347638    0.490642   -0.637343
C     -5.810369   -0.114269   -1.807613
C     -4.912928   -0.720922   -2.684882
C     -3.547119   -0.718947   -2.399618
C     -3.062521   -0.106702   -1.230216
C     -1.604858   -0.110130   -0.957764
C     -0.871372   -1.305252   -1.039113
C      0.503170   -1.310918   -0.785927
C      1.166938   -0.124233   -0.438823
C      0.440024    1.076703   -0.387688
C     -0.934288    1.082863   -0.640794
C      2.628021   -0.143337   -0.195375
N      3.418548   -0.770317   -1.105087
C      4.767451   -0.837784   -0.979349
C      5.516778   -1.492444   -1.959634
C      6.902748   -1.555036   -1.832795
N      7.514415   -0.982877   -0.764310
C      6.815651   -0.339222    0.208674
C      5.410189   -0.246943    0.132112
C      4.614389    0.398005    1.110964
O      5.163166    0.992626    2.254286
C      3.217629    0.444444    0.945889
C      2.405434    1.041506    1.983282
N      1.755950    1.518670    2.813903
H     -5.560663   -0.135190    2.143931
H     -5.436558    0.913631    3.605974
H     -4.065418   -0.173818    3.157093
H     -3.590979    2.197984    2.578053
H     -5.041687    2.285365    1.536319
H     -6.072658    0.948640    0.019385
H     -6.868910   -0.113969   -2.033871
H     -5.275580   -1.189382   -3.590747
H     -2.863810   -1.182742   -3.100570
H     -1.365545   -2.236656   -1.286906
H      1.047948   -2.245174   -0.847872
H      0.938828    2.013018   -0.170848
H     -1.471098    2.022919   -0.608335
H      5.030798   -1.947783   -2.813832
H      7.494564   -2.058365   -2.585598
H      7.376419    0.088905    1.022947
H      6.147328    1.007596    2.477448
