48
Lipophilicity 557 2.200000047683716
N     -4.885270   -0.437731   -1.826452
C     -4.160865   -0.771361   -0.597471
C     -5.008917   -0.483904    0.651977
C     -5.130015   -1.976245    0.921478
C     -4.248345   -2.273371   -0.282126
C     -2.754543   -0.181461   -0.583167
C     -2.534420    1.130595   -0.124064
C     -1.255858    1.693302   -0.163156
C     -0.176316    0.964618   -0.680603
C     -0.404814   -0.314166   -1.211012
C     -1.682432   -0.877566   -1.171358
C      1.173947    1.569273   -0.709282
N      1.310523    2.792917   -1.286866
C      2.504514    3.427109   -1.381204
C      3.656893    2.831587   -0.864325
C      4.897015    3.479818   -0.947020
N      6.004662    2.902539   -0.414310
C      5.951568    1.698121    0.210259
C      4.739819    1.012675    0.317575
C      3.567626    1.568530   -0.235138
C      2.308148    0.919767   -0.157582
C      2.159309   -0.386942    0.529785
C      1.427511   -0.476527    1.725018
C      1.256888   -1.713605    2.353531
C      1.814579   -2.866566    1.793617
C      2.543043   -2.784533    0.603420
C      2.714507   -1.549683   -0.029374
H     -4.929919    0.603785   -1.914410
H     -4.336480   -0.792705   -2.643343
H     -5.992267   -0.015131    0.426518
H     -4.460681    0.023506    1.475460
H     -4.659765   -2.278345    1.883014
H     -6.169351   -2.349042    0.789357
H     -3.288101   -2.735280    0.035414
H     -4.781792   -2.863040   -1.060119
H     -3.353015    1.725709    0.259706
H     -1.106863    2.696654    0.216961
H      0.402134   -0.869593   -1.671880
H     -1.833958   -1.854183   -1.612724
H      2.549460    4.398808   -1.857209
H      4.985261    4.445755   -1.428762
H      6.853169    1.271642    0.629400
H      4.732674    0.063612    0.835862
H      0.987022    0.409954    2.164697
H      0.690567   -1.778851    3.273508
H      1.680716   -3.823626    2.280932
H      2.971356   -3.678510    0.169060
H      3.271076   -1.498312   -0.957093
