77
Lipophilicity 1765 3.140000104904175
C     -8.299031    0.940193    1.577323
C     -8.071649    1.308882    0.108844
C     -6.573639    1.546587   -0.221495
N     -5.709601    0.337141   -0.278474
C     -6.192334   -1.063213   -0.139379
C     -5.634671   -1.753834    1.115063
C     -4.895776   -2.997243    0.635597
C     -5.434883   -3.290412   -0.752936
C     -5.806287   -1.940718   -1.339696
C     -4.321151    0.600070   -0.590280
N     -3.331015   -0.178155   -0.078092
C     -2.023932    0.057080   -0.359886
N     -1.014880   -0.774596    0.232103
C      0.391255   -0.669849   -0.056892
C      0.839732   -0.454456   -1.370231
C      2.203173   -0.356310   -1.647624
C      3.153219   -0.487830   -0.621827
C      2.707875   -0.753507    0.685146
C      1.331158   -0.842261    0.976111
O      0.863046   -1.090177    2.276884
C      1.696965   -1.292830    3.413120
C      4.600335   -0.372066   -0.933570
O      4.991162   -0.551035   -2.119184
N      5.556436   -0.038103    0.087350
C      7.003489   -0.032497   -0.148179
C      7.523121    1.420416   -0.225881
C      9.013921    1.531583    0.149108
N      9.711153    0.266200   -0.145495
C     11.166305    0.437978   -0.031944
C      9.249441   -0.821507    0.750513
C      7.719173   -0.805087    0.968291
N     -1.688267    1.106535   -1.156796
C     -2.637047    1.903723   -1.709694
C     -3.995666    1.662049   -1.451474
N     -5.054106    2.443295   -2.053403
C     -4.782456    3.349081   -3.176426
C     -6.383421    2.325750   -1.505257
O     -7.358005    2.903050   -2.062999
H     -9.376329    0.727159    1.743275
H     -7.999874    1.787292    2.233130
H     -7.711402    0.053689    1.879364
H     -8.634801    2.253766   -0.053909
H     -8.529458    0.566430   -0.576579
H     -6.176213    2.203107    0.584929
H     -7.293376   -1.114953   -0.071987
H     -6.472795   -2.066053    1.777712
H     -4.969148   -1.092339    1.710309
H     -3.805015   -2.789862    0.575641
H     -5.062590   -3.857398    1.321182
H     -6.346917   -3.923571   -0.670574
H     -4.683054   -3.815114   -1.378622
H     -4.934584   -1.538600   -1.897187
H     -6.653168   -2.040347   -2.053170
H     -1.320077   -1.430176    0.986925
H      0.135987   -0.380842   -2.189265
H      2.513518   -0.171345   -2.668957
H      3.429306   -0.911366    1.473049
H      1.059437   -1.472731    4.303098
H      2.344568   -2.181948    3.257600
H      2.319555   -0.391298    3.598142
H      5.215989    0.340285    0.999154
H      7.238036   -0.545900   -1.108584
H      6.938640    2.081532    0.452326
H      7.373783    1.794996   -1.263636
H      9.459281    2.368902   -0.432182
H      9.110400    1.781523    1.231016
H     11.520490    1.184115   -0.775704
H     11.454140    0.778326    0.988400
H     11.681363   -0.521041   -0.254350
H      9.746682   -0.762766    1.747325
H      9.533439   -1.795860    0.294063
H      7.334517   -1.847632    1.010426
H      7.495068   -0.323790    1.947031
H     -2.323343    2.723806   -2.339769
H     -4.261797    4.257299   -2.806700
H     -5.715754    3.660123   -3.692521
H     -4.147642    2.838652   -3.931114
