33
Lipophilicity 674 1.090000033378601
C     -1.485964   -2.608398   -0.541026
C     -2.193632   -1.298420   -0.317335
C     -3.584288   -1.238833   -0.488000
C     -4.272815   -0.047971   -0.267754
C     -3.584011    1.099934    0.120725
C     -2.188010    1.078234    0.281982
C     -1.481511    2.325400    0.669660
O     -0.327103    2.563125    0.223355
N     -2.095198    3.276482    1.542898
C     -1.483308   -0.126335    0.036933
N     -0.060699   -0.174529    0.219153
C      0.843836   -0.294214   -0.891441
O      0.382898   -0.438825   -2.057124
C      2.312172   -0.257235   -0.693975
C      3.158707   -0.907197   -1.611441
C      4.546114   -0.876960   -1.440675
C      5.104044   -0.191863   -0.359445
C      4.275714    0.468672    0.550311
C      2.887219    0.440840    0.385346
H     -2.174855   -3.464535   -0.377713
H     -0.638307   -2.725953    0.166300
H     -1.105854   -2.654255   -1.582352
H     -4.140024   -2.120281   -0.783829
H     -5.346672   -0.013867   -0.399766
H     -4.144831    2.014220    0.266993
H     -1.605851    4.170854    1.768580
H     -3.000599    3.071268    2.019930
H      0.303909   -0.066037    1.190776
H      2.746727   -1.448632   -2.454177
H      5.188966   -1.385453   -2.147599
H      6.178328   -0.168005   -0.229720
H      4.710256    1.009639    1.381070
H      2.274641    0.989129    1.087851
