52
Lipophilicity 504 1.75
O      3.920576    0.277533   -1.708994
C      3.270479    0.314983   -0.627406
N      2.975461    1.576767   -0.008008
C      3.413270    2.848952   -0.575596
C      2.666333    3.140769   -1.803896
N      2.078648    3.370017   -2.773987
C      2.818518   -0.972381    0.019871
C      4.045279   -1.763404    0.513067
C      3.624920   -3.090795    1.155944
C      2.806710   -3.940545    0.176844
C      1.571197   -3.176264   -0.314132
C      1.971865   -1.833681   -0.956575
C      0.754355   -1.102890   -1.483598
O      0.436934   -1.255639   -2.694668
N     -0.033975   -0.225185   -0.659347
C     -0.730696   -0.751124    0.523995
C     -1.720311    0.268392    1.106102
N     -2.516685    0.893333    0.037835
C     -1.873243    1.287357   -1.226722
C     -0.355580    1.117520   -1.153626
C     -3.884723    1.281630    0.285599
C     -4.855347    1.161478   -0.727000
C     -6.179327    1.541561   -0.487479
C     -6.548493    2.048194    0.760420
C     -5.593696    2.177489    1.771743
C     -4.268223    1.797882    1.538270
H      2.469167    1.591523    0.905824
H      3.230253    3.666051    0.154554
H      4.500942    2.811569   -0.798296
H      2.206304   -0.726025    0.911931
H      4.735585   -1.971454   -0.334860
H      4.599549   -1.159964    1.265222
H      3.024708   -2.890698    2.071016
H      4.533160   -3.654812    1.459170
H      2.482503   -4.874260    0.685020
H      3.440571   -4.226670   -0.691392
H      0.887732   -3.016199    0.544679
H      1.036298   -3.802276   -1.061663
H      2.615393   -2.074677   -1.834375
H     -0.001850   -1.017726    1.314293
H     -1.292108   -1.666895    0.236736
H     -1.161693    1.057244    1.655040
H     -2.381523   -0.257307    1.829299
H     -2.103788    2.351427   -1.452041
H     -2.263902    0.654983   -2.052406
H      0.067556    1.872614   -0.456779
H      0.088932    1.297941   -2.156672
H     -4.594393    0.760485   -1.697321
H     -6.920005    1.441971   -1.270406
H     -7.573698    2.343054    0.943127
H     -5.879412    2.576395    2.736537
H     -3.540530    1.921757    2.330011
