26
Lipophilicity 855 2.950000047683716
N      3.624163    1.239487   -0.356466
C      2.660702    0.210745   -0.091395
C      3.118704   -1.107121    0.003632
C      2.224823   -2.156299    0.163649
C      0.855379   -1.913408    0.190940
C      0.344211   -0.600028    0.084379
C     -1.141682   -0.339899    0.046678
C     -2.083970   -1.389371   -0.083478
C     -3.454614   -1.126425   -0.116046
C     -3.919827    0.181656   -0.035960
C     -3.015738    1.235907    0.062998
C     -1.630253    0.990084    0.094970
C     -0.689579    2.121810    0.170871
O     -1.115256    3.307288    0.244213
C      0.752843    1.871875    0.173974
O      1.530738    2.840674    0.384526
C      1.267751    0.483901    0.024133
H      4.642798    1.056023   -0.215316
H      3.372672    2.095804   -0.895914
H      4.177830   -1.323576   -0.062658
H      2.594971   -3.170477    0.245299
H      0.218299   -2.772369    0.319931
H     -1.790273   -2.420696   -0.185416
H     -4.159191   -1.942724   -0.212323
H     -4.983505    0.380535   -0.063201
H     -3.401996    2.246605    0.107979
