46
Lipophilicity 660 2.549999952316284
C      5.503935   -3.281225    0.387868
C      4.269216   -3.962987   -0.189952
O      3.480957   -3.033517   -0.929856
C      2.646443   -2.076554   -0.340524
C      2.383617   -1.911823    1.006809
C      1.506009   -0.844711    1.031935
N      0.941842   -0.277304    2.222967
C     -0.046044    0.768159    2.224715
N     -0.616084    1.185763    1.050148
C     -1.549227    2.167547    1.079890
C     -1.951796    2.760121    2.229558
C     -1.419188    2.383201    3.455269
C     -0.446787    1.364721    3.452805
F      0.101271    0.964156    4.628518
N     -2.884449    3.695643    1.972652
C     -3.016526    3.629594    0.619251
N     -2.212182    2.699548    0.043044
C     -2.109234    2.379230   -1.385151
C     -0.734450    2.794319   -1.933306
O     -0.555370    4.173761   -1.766721
C     -2.409806    0.913954   -1.610677
C     -3.732033    0.450948   -1.535135
C     -3.994536   -0.910987   -1.696696
C     -2.941957   -1.799106   -1.922092
F     -3.184450   -3.123710   -2.078290
C     -1.636342   -1.308920   -1.979370
N     -1.401303    0.020331   -1.819449
N      1.265913   -0.400082   -0.218066
N      1.962908   -1.160291   -1.046635
H      6.096811   -2.817723   -0.428748
H      6.134442   -4.030648    0.910786
H      5.211203   -2.494825    1.114226
H      3.667222   -4.429738    0.619466
H      4.599579   -4.769602   -0.877683
H      2.765852   -2.477567    1.845546
H      1.274957   -0.655822    3.138316
H     -1.738707    2.853456    4.375949
H     -3.699855    4.258238    0.061548
H     -2.872030    2.968196   -1.944533
H      0.075086    2.246415   -1.401138
H     -0.680776    2.544049   -3.016978
H      0.344397    4.380744   -2.130804
H     -4.547691    1.137581   -1.347902
H     -5.011610   -1.276792   -1.642526
H     -0.807979   -1.984701   -2.145118
H      1.968753   -1.048240   -2.083916
