42
Lipophilicity 102 1.7300000190734863
C     -3.552719    0.447383   -1.366311
C     -2.726838    0.858623   -0.142969
N     -1.370870    0.302406   -0.236291
C     -0.321245    0.826815   -1.070116
C     -0.476403    1.985275   -1.847949
N      0.559057    2.421916   -2.609258
C      1.753600    1.773239   -2.639957
C      2.851584    2.315336   -3.504558
C      1.919792    0.611964   -1.858527
N      3.149343   -0.135948   -1.880693
C      3.541837   -1.062202   -0.857651
C      3.072096   -1.103867    0.445472
C      3.804987   -2.120472    1.021491
C      3.758304   -2.532179    2.455838
N      4.668127   -2.615902    0.115677
N      4.517291   -1.975376   -1.032029
N      0.872438    0.177685   -1.106137
C     -3.395878    0.380754    1.125664
C     -3.702412    1.279276    2.160796
C     -4.306352    0.803538    3.326511
C     -4.594481   -0.556014    3.455090
F     -5.179944   -1.028759    4.582818
C     -4.270620   -1.424456    2.410957
N     -3.683291   -0.943128    1.283060
H     -3.098742    0.849793   -2.295246
H     -4.585190    0.849296   -1.282593
H     -3.600737   -0.659384   -1.452104
H     -2.669511    1.967848   -0.113201
H     -1.147639   -0.561493    0.309823
H     -1.400002    2.543442   -1.863507
H      3.777934    2.447068   -2.906552
H      2.564609    3.303036   -3.923996
H      3.045793    1.618319   -4.346439
H      3.782939   -0.050059   -2.706168
H      2.341772   -0.466349    0.924985
H      2.734332   -2.389216    2.860799
H      4.034781   -3.603015    2.551772
H      4.472618   -1.916347    3.040603
H      5.370119   -3.371667    0.277574
H     -3.477327    2.334412    2.068300
H     -4.548778    1.488459    4.128830
H     -4.484375   -2.481506    2.496192
