26
Lipophilicity 1014 1.4800000190734863
C      4.841644    1.296568   -0.776706
C      4.682453   -0.074921   -0.980206
C      3.418670   -0.655470   -0.852280
C      2.319833    0.152753   -0.518963
N      2.504872    1.488673   -0.326115
C      3.727921    2.071069   -0.446439
C      0.970705   -0.418460   -0.374187
N      0.680698   -1.723461   -0.543012
N     -0.616917   -1.836200   -0.329932
C     -1.096705   -0.611552   -0.036976
N     -0.116579    0.316021   -0.055448
C     -2.514353   -0.296945    0.269874
C     -3.505217   -1.295178    0.278252
C     -4.828248   -0.955206    0.572453
N     -5.157736    0.333297    0.849387
C     -4.225088    1.320856    0.849605
C     -2.890685    1.025808    0.560977
H      5.817415    1.754636   -0.873824
H      5.537129   -0.687470   -1.236739
H      3.302372   -1.720160   -1.011555
H      3.835218    3.135422   -0.285617
H     -1.138126   -2.737391   -0.389084
H     -3.273640   -2.327886    0.062117
H     -5.594802   -1.718627    0.580426
H     -4.519211    2.337438    1.074205
H     -2.161622    1.826388    0.565996
