45
Lipophilicity 814 2.9200000762939453
C      7.129569    1.456659   -1.334421
O      6.761453    0.573684   -0.279759
C      5.465092    0.463498    0.244655
C      5.243098   -0.446330    1.284168
C      3.968951   -0.594271    1.839580
C      2.889843    0.160207    1.352325
C      3.113882    1.085768    0.320541
C      4.388739    1.234250   -0.233677
C      1.546069    0.010324    1.952029
O      1.447736   -0.241952    3.184155
N      0.352010    0.132994    1.156545
C     -0.855989    0.736563    1.734285
C     -1.996705   -0.290334    1.785528
C     -2.071881   -1.175385    0.511434
C     -1.171244   -0.676693   -0.639060
C      0.279149   -0.535283   -0.154364
C     -3.500615   -1.423396    0.065763
O     -4.022091   -2.531205    0.370748
C     -4.317145   -0.446184   -0.709252
C     -4.094578    0.943800   -0.639301
C     -4.888904    1.829281   -1.374079
C     -5.920019    1.344407   -2.180520
F     -6.690217    2.206257   -2.889483
C     -6.160027   -0.028620   -2.252179
C     -5.367814   -0.918396   -1.520463
H      8.210879    1.333873   -1.549167
H      6.944154    2.509564   -1.033440
H      6.554787    1.214776   -2.253229
H      6.063417   -1.042070    1.664129
H      3.823609   -1.307808    2.641378
H      2.307844    1.710903   -0.042472
H      4.527643    1.954761   -1.028137
H     -0.664241    1.134588    2.754693
H     -1.160710    1.599182    1.103857
H     -2.952050    0.245796    1.970914
H     -1.836103   -0.948089    2.668310
H     -1.652788   -2.168672    0.796917
H     -1.513314    0.305486   -1.022800
H     -1.204574   -1.397810   -1.485000
H      0.723207   -1.551879   -0.071672
H      0.858606    0.034876   -0.908946
H     -3.320216    1.359186   -0.014684
H     -4.706453    2.894467   -1.312891
H     -6.960555   -0.406224   -2.875365
H     -5.571503   -1.979351   -1.597593
