68
Lipophilicity 1492 2.799999952316284
C     -0.016926    0.516071    1.540613
C      0.172307   -0.591379    0.497156
C      1.663261   -0.888764    0.261173
N      2.268140    0.154041   -0.570843
C      1.625551    0.444816   -1.853522
C      0.153337    0.784940   -1.630071
N     -0.499801   -0.222128   -0.768840
C     -1.887747   -0.570402   -1.028264
O     -2.462178   -0.094973   -2.049816
C     -2.656092   -1.549338   -0.147971
C     -2.170152   -3.002556   -0.409467
C     -3.126746   -3.784759   -1.313300
C     -4.526586   -3.906386   -0.681362
C     -4.926153   -2.682274    0.170786
C     -4.206276   -1.404277   -0.299443
C     -4.713016   -0.200623    0.459297
O     -4.749198   -0.226100    1.719992
N     -5.139278    0.971872   -0.246953
C     -5.614150    2.164989    0.449095
C     -6.878023    2.783117   -0.125805
C     -6.929406    2.021975    1.196940
C     -4.607905    3.091034    0.990761
N     -3.815201    3.820670    1.415648
C      3.574288    0.678228   -0.270245
C      3.821373    2.073181   -0.374635
C      5.089076    2.606092   -0.071253
C      6.083746    1.716846    0.334342
C      5.851467    0.375284    0.436172
C      4.613220   -0.188265    0.142703
C      7.051705   -0.169947    0.848095
C      7.338902   -1.614168    1.095137
N      7.961964    0.825037    0.981393
N      7.362209    1.970330    0.673331
C      8.028061    3.267301    0.677734
H      0.407291    0.199212    2.516634
H     -1.097822    0.727340    1.679665
H      0.491550    1.448329    1.220076
H     -0.247651   -1.527981    0.914667
H      2.183943   -0.969827    1.240841
H      1.764342   -1.868523   -0.255529
H      2.120646    1.292187   -2.375522
H      1.708198   -0.449410   -2.511741
H     -0.329683    0.844972   -2.628261
H      0.072259    1.786106   -1.155792
H     -2.424399   -1.313630    0.911883
H     -1.154337   -3.014120   -0.861166
H     -2.092805   -3.540859    0.560194
H     -3.202491   -3.266105   -2.293734
H     -2.715313   -4.801239   -1.498991
H     -5.270703   -4.049638   -1.495931
H     -4.561972   -4.815043   -0.040069
H     -6.030458   -2.544895    0.111470
H     -4.668267   -2.880229    1.236172
H     -4.475919   -1.280483   -1.371810
H     -5.036615    1.010035   -1.284313
H     -6.973126    3.883382   -0.010674
H     -7.337649    2.232499   -0.974728
H     -7.410296    1.023968    1.125049
H     -7.047804    2.678105    2.086488
H      3.024514    2.742927   -0.674983
H      5.280367    3.668653   -0.145924
H      4.461177   -1.257150    0.220286
H      6.650107   -2.001946    1.873503
H      8.385578   -1.745088    1.440581
H      7.192473   -2.188677    0.157365
H      9.047708    3.171516    1.105738
H      8.108556    3.650021   -0.361744
H      7.444827    3.986102    1.291624
