40
Lipophilicity 487 4.099999904632568
C      5.148738    1.887654    2.466884
C      3.906726    1.324246    1.842742
C      3.758687    1.314615    0.447569
C      2.585534    0.824322   -0.133320
C      1.548201    0.331248    0.673779
C      1.678287    0.383355    2.069099
C      2.851399    0.873945    2.650403
C      0.290308   -0.143916    0.073066
N     -0.923033    0.327673    0.451002
N     -1.853070   -0.182194   -0.352650
C     -1.226806   -0.974963   -1.247117
N     -1.792316   -1.666710   -2.266255
C     -0.984792   -2.420372   -3.067352
N      0.360216   -2.495421   -2.822457
C      0.942222   -1.808696   -1.795082
N      2.326851   -2.009102   -1.507953
C      0.115615   -0.997815   -1.008901
C     -3.297859    0.120148   -0.256027
C     -3.570040    1.063564    0.936725
C     -4.091105   -1.182824   -0.037097
C     -3.772089    0.814794   -1.546881
H      5.017802    2.977663    2.630537
H      5.354403    1.396703    3.441934
H      6.027592    1.722931    1.807684
H      4.548641    1.691687   -0.190222
H      2.482601    0.837736   -1.211436
H      0.873686    0.038758    2.707386
H      2.935519    0.904809    3.729757
H     -1.412971   -2.977538   -3.889073
H      2.921852   -2.546564   -2.176580
H      2.729900   -1.776321   -0.575582
H     -3.021494    2.021876    0.809644
H     -3.240618    0.593351    1.888473
H     -4.654319    1.294065    1.020589
H     -5.170924   -0.965128    0.111739
H     -3.711443   -1.716967    0.860340
H     -4.001451   -1.861420   -0.910054
H     -3.167226    1.727618   -1.735932
H     -3.672521    0.143721   -2.424750
H     -4.840701    1.109467   -1.464630
