68
Lipophilicity 2061 3.0
C     -0.324070   -4.389991    1.775732
C     -0.570586   -4.358933    0.461443
C     -0.774856   -3.061456   -0.261083
O      0.391166   -2.251923   -0.128018
C      0.495692   -0.925722   -0.575212
C     -0.512764   -0.316910   -1.347567
C     -0.395881    1.023837   -1.751288
C      0.749045    1.750146   -1.392198
C      1.754486    1.151955   -0.630610
C      1.633538   -0.183784   -0.216510
N      2.679768   -0.803806    0.546079
C      3.307391   -0.161656    1.667057
O      2.763810    0.834901    2.212992
C      4.576866   -0.727076    2.251577
N      5.807297   -0.151484    1.664675
C      5.952436    1.296366    1.913940
C      7.222072    1.837229    1.223170
O      8.028351    0.782272    0.733622
C      7.327136    0.069695   -0.272098
C      5.964783   -0.457455    0.231430
C     -1.470726    1.668925   -2.544826
C     -1.146438    2.366139   -3.720185
C     -2.143796    2.985846   -4.476606
C     -3.477221    2.929992   -4.066943
C     -3.823935    2.246769   -2.888907
C     -5.147766    2.182610   -2.425686
O     -6.085800    2.739466   -3.058991
C     -5.430102    1.495829   -1.244050
C     -4.381990    0.872775   -0.540300
O     -3.138791    0.969004   -1.007244
C     -2.817020    1.611082   -2.127307
N     -4.613810    0.136076    0.682657
C     -3.525636    0.043588    1.666284
C     -3.698776   -1.194947    2.549061
O     -5.000823   -1.242049    3.094339
C     -5.936750   -1.440339    2.054443
C     -5.972329   -0.233334    1.109369
H     -0.257824   -3.471805    2.354678
H     -0.179336   -5.340120    2.280234
H     -0.641199   -5.292617   -0.091188
H     -1.652593   -2.537635    0.176959
H     -0.967530   -3.266557   -1.336850
H     -1.385951   -0.881889   -1.645048
H      0.858196    2.784662   -1.693956
H      2.636093    1.726594   -0.374618
H      2.966703   -1.776339    0.299860
H      4.579166   -0.553603    3.350747
H      4.584063   -1.830801    2.118029
H      5.073232    1.857718    1.530608
H      6.028927    1.472572    3.010011
H      6.950804    2.536129    0.399421
H      7.816674    2.424280    1.954847
H      7.189525    0.709712   -1.173633
H      7.956140   -0.790408   -0.586017
H      5.152083    0.015913   -0.360053
H      5.913667   -1.556365    0.071408
H     -0.119407    2.417939   -4.059944
H     -1.882196    3.515415   -5.383435
H     -4.231115    3.425423   -4.667000
H     -6.449784    1.471147   -0.881709
H     -3.534634    0.955037    2.302802
H     -2.536854   -0.023943    1.164094
H     -2.967434   -1.141104    3.382591
H     -3.465810   -2.121020    1.975218
H     -5.718296   -2.375235    1.488251
H     -6.944889   -1.567553    2.504044
H     -6.439845    0.634754    1.625730
H     -6.594548   -0.513939    0.231335
