38
Lipophilicity 1385 3.180000066757202
C     -3.961742   -1.013748   -2.341529
C     -3.351462   -0.537312   -1.048197
C     -4.194104   -0.342032    0.062967
C     -3.629012    0.096116    1.251887
N     -4.294203    0.327289    2.402533
N     -3.374799    0.724345    3.271471
C     -2.184444    0.727485    2.644469
O     -1.105494    1.055730    3.204175
N     -2.308864    0.334398    1.358506
C     -1.431832    0.167511    0.322691
C     -0.053614    0.424068    0.451247
C      0.812724    0.226064   -0.633343
C      0.297212   -0.205013   -1.861112
C     -1.066446   -0.459777   -2.008326
C     -1.951702   -0.282120   -0.926381
C      2.260077    0.507317   -0.494988
C      2.828789    1.495005   -1.318037
C      4.173838    1.841801   -1.186952
C      4.967096    1.212487   -0.229474
C      4.423793    0.219814    0.587681
C      3.077721   -0.169000    0.449689
C      2.538588   -1.269711    1.341362
O      3.483203   -2.293389    1.507314
H     -3.783721   -0.263457   -3.140322
H     -5.059070   -1.160901   -2.249953
H     -3.510831   -1.984967   -2.634994
H     -5.259905   -0.526528    0.005202
H     -3.565293    0.982974    4.264906
H      0.365138    0.780398    1.379020
H      0.956952   -0.352527   -2.707660
H     -1.415925   -0.796262   -2.974946
H      2.221612    2.014264   -2.049886
H      4.598374    2.610107   -1.820224
H      6.006717    1.493350   -0.120355
H      5.060148   -0.253688    1.325065
H      2.304166   -0.836693    2.336157
H      1.601712   -1.710633    0.936193
H      3.524601   -2.782767    0.644142
