55
Lipophilicity 1987 3.5999999046325684
C     -3.092319   -2.402459   -1.745200
C     -3.652978   -1.340389   -0.775726
C     -4.330266   -0.223503   -1.594742
C     -2.600329   -0.812086    0.273464
C     -1.322322   -0.237402   -0.428183
C     -0.235118    0.273654    0.546353
C      0.947407    0.913513   -0.198732
N      1.588113   -0.016790   -1.154467
C      2.483779    0.699777   -2.077144
C      2.207509   -1.230152   -0.560007
C      3.170625   -0.993774    0.626748
C      4.422007   -0.243204    0.250008
C      4.684672    1.024717    0.797918
C      5.845968    1.718474    0.444193
C      6.757175    1.150052   -0.449647
C      6.511487   -0.115864   -0.987590
C      5.351810   -0.813591   -0.636814
C     -2.147042   -1.968474    1.089274
N     -1.792491   -2.869288    1.723971
C     -3.294398    0.207822    1.206310
C     -4.127748   -0.240607    2.259692
C     -4.811474    0.665845    3.074145
C     -4.706783    2.035623    2.839728
C     -3.931656    2.501619    1.779253
C     -3.245275    1.601383    0.959592
H     -2.394030   -1.947775   -2.478867
H     -2.569239   -3.214470   -1.199483
H     -3.925048   -2.868798   -2.314095
H     -4.468485   -1.841571   -0.205136
H     -4.887504    0.473356   -0.936296
H     -5.071911   -0.663201   -2.295626
H     -3.590820    0.347031   -2.192475
H     -0.857737   -1.035224   -1.045182
H     -1.589430    0.572736   -1.135524
H     -0.655677    1.040093    1.227912
H      0.130415   -0.553102    1.189291
H      1.684136    1.310626    0.529718
H      0.551558    1.796813   -0.748957
H      1.878594    1.335676   -2.757407
H      3.191907    1.356364   -1.531129
H      3.054342   -0.007772   -2.716054
H      1.397544   -1.904653   -0.211363
H      2.728611   -1.816602   -1.347688
H      3.479379   -1.988083    1.016180
H      2.641806   -0.502671    1.469765
H      3.990637    1.479071    1.493558
H      6.039858    2.697061    0.863978
H      7.655482    1.688716   -0.722219
H      7.220845   -0.557641   -1.675390
H      5.178041   -1.796203   -1.056992
H     -4.261110   -1.297328    2.451566
H     -5.433059    0.303193    3.882691
H     -5.240343    2.735621    3.469645
H     -3.870959    3.564407    1.583058
H     -2.688154    2.009433    0.130124
