49
Lipophilicity 636 1.7799999713897705
C      7.783006   -0.131233    1.453397
C      6.625085    0.634352    0.901841
O      6.099764    1.551073    1.589684
N      6.140942    0.347007   -0.416857
C      4.995258    1.039971   -1.001542
C      3.718362    0.569163   -0.360270
C      3.017958    1.396753    0.530491
C      1.843507    0.944594    1.138455
C      1.347051   -0.339776    0.860710
C      0.075297   -0.832678    1.521764
N     -1.162522   -0.446792    0.807932
C     -1.364146    1.009278    0.716864
C     -2.836815    1.286832    0.396228
N     -3.373390    0.271568   -0.521534
C     -2.440803   -0.497025   -1.356461
C     -1.319526   -1.121974   -0.500776
C     -4.798118    0.099852   -0.655363
C     -5.361063   -1.188965   -0.670324
C     -6.744407   -1.355188   -0.787529
C     -7.578345   -0.238815   -0.885868
C     -7.030574    1.046080   -0.863337
C     -5.647790    1.217259   -0.745329
C      2.062410   -1.174150   -0.014203
C      3.236742   -0.722014   -0.622067
H      7.621314   -1.218410    1.297924
H      7.895031    0.061151    2.541645
H      8.712602    0.178501    0.932352
H      6.627781   -0.380844   -0.987409
H      4.951747    0.822712   -2.090958
H      5.124918    2.139100   -0.894242
H      3.382302    2.390631    0.758872
H      1.325373    1.595778    1.830538
H      0.030036   -0.447553    2.564025
H      0.108967   -1.940012    1.622198
H     -0.717640    1.442931   -0.079272
H     -1.116229    1.504015    1.681600
H     -3.415390    1.260033    1.345921
H     -2.937599    2.297924   -0.052519
H     -2.961469   -1.289650   -1.935247
H     -1.988393    0.195782   -2.099285
H     -1.563344   -2.190950   -0.318404
H     -0.380918   -1.083708   -1.091358
H     -4.732039   -2.064319   -0.571330
H     -7.170410   -2.350150   -0.796513
H     -8.649004   -0.369267   -0.976068
H     -7.677719    1.910441   -0.938266
H     -5.241557    2.219967   -0.738325
H      1.709965   -2.175867   -0.226967
H      3.773791   -1.379379   -1.294814
