57
Lipophilicity 467 3.049999952316284
C     -8.333809    0.134393    3.399014
O     -8.748039   -0.796534    2.423358
C     -7.672175   -1.110846    1.554837
C     -7.823040   -0.327181    0.246482
C     -6.640160   -0.555662   -0.647166
O     -6.582442   -1.615010   -1.334859
N     -5.577415    0.415359   -0.691149
C     -4.405068    0.299898   -1.567716
C     -4.140230    1.655046   -2.241704
C     -3.173033   -0.145179   -0.798448
C     -3.014762    0.120973    0.576804
C     -1.816680   -0.191813    1.226114
C     -0.739846   -0.733280    0.510777
N      0.499443   -0.992429    1.189328
C      1.786184   -0.669715    0.640631
N      1.892104   -0.010110   -0.546058
C      3.100867    0.336062   -1.058954
C      4.267756    0.024386   -0.357442
C      5.536275    0.366609   -0.846481
C      6.691015    0.046737   -0.108390
C      6.552368   -0.618823    1.124334
C      5.286782   -0.964910    1.609222
C      4.142970   -0.646546    0.873133
N      2.910346   -0.974969    1.342726
C      8.036548    0.406134   -0.623390
C      8.349628    0.247179   -1.985103
C      9.622984    0.589338   -2.446754
N     10.553932    1.076577   -1.583832
C     10.281491    1.245023   -0.262862
C      9.021935    0.912743    0.241839
C     -0.900901   -1.026379   -0.852724
C     -2.103939   -0.730002   -1.501044
H     -9.225247    0.459710    3.978895
H     -7.878376    1.043387    2.939270
H     -7.612200   -0.339502    4.108744
H     -7.727486   -2.201524    1.326552
H     -6.657270   -0.934738    2.004022
H     -8.750310   -0.652361   -0.275018
H     -7.922786    0.756940    0.464400
H     -5.645604    1.246235   -0.059106
H     -4.612418   -0.439604   -2.381594
H     -5.039377    1.971703   -2.810041
H     -3.903113    2.432892   -1.480178
H     -3.288786    1.575940   -2.956422
H     -3.802355    0.589696    1.154205
H     -1.713134    0.025898    2.281803
H      0.460518   -1.276438    2.195394
H      3.145869    0.855229   -2.007445
H      5.623511    0.894896   -1.788182
H      7.425732   -0.891011    1.703827
H      5.198846   -1.483095    2.556061
H      7.624042   -0.154321   -2.681941
H      9.872584    0.463515   -3.492300
H     11.042599    1.640584    0.396939
H      8.814769    1.066732    1.293984
H     -0.097157   -1.483297   -1.415620
H     -2.193940   -0.934538   -2.560774
