48
Lipophilicity 1190 2.5999999046325684
C     -1.324841   -4.007639    1.512028
N     -1.181597   -3.228314    0.281480
C     -0.212687   -3.638511   -0.752861
C      0.345603   -2.437360   -1.473077
O      1.426556   -2.533100   -2.114217
N     -0.360159   -1.181857   -1.412741
C     -1.823805   -1.305773   -1.220095
C     -2.606794    0.027883   -1.303144
C     -1.816236    1.158405   -0.760317
C     -0.444355    1.219595   -0.814994
N      0.002730    2.448436   -0.461265
C     -1.103549    3.167058   -0.193972
C     -1.170658    4.509222    0.176531
C     -2.445015    5.078484    0.356622
C     -3.610585    4.305424    0.154477
C     -3.513671    2.954230   -0.225700
C     -2.237622    2.414521   -0.380147
C      0.418026    0.075316   -1.256704
C      1.532350   -0.102289   -0.242333
C      1.235622   -0.507901    1.087573
C      2.264363   -0.678303    2.030481
C      3.569654   -0.432566    1.618198
O      4.736099   -0.528683    2.352052
C      5.829693   -0.174562    1.493884
O      5.227437    0.130033    0.228046
C      3.862191   -0.040281    0.352892
C      2.875371    0.139269   -0.611874
C     -2.039995   -2.094554    0.042703
O     -2.946324   -1.788127    0.865274
H     -2.364364   -4.388927    1.596492
H     -1.096731   -3.365008    2.388385
H     -0.634191   -4.877249    1.521992
H     -0.722921   -4.293372   -1.490184
H      0.627160   -4.205178   -0.295702
H     -2.223887   -1.937125   -2.045188
H     -2.813176    0.253039   -2.371947
H     -3.588879   -0.042016   -0.789490
H      0.993642    2.777233   -0.428973
H     -0.272786    5.097666    0.314183
H     -2.532824    6.117964    0.644583
H     -4.584930    4.756737    0.289048
H     -4.401405    2.357382   -0.389562
H      0.843264    0.340573   -2.248961
H      0.211279   -0.689914    1.386539
H      2.048211   -0.989216    3.044002
H      6.527785   -1.031475    1.389613
H      6.355839    0.718093    1.892427
H      3.141113    0.452734   -1.613230
