36
Lipophilicity 694 3.299999952316284
O      6.026757   -0.363583    1.780219
C      5.501367   -0.236918    0.641434
C      6.363636   -0.283375   -0.588779
C      5.756463    0.581218   -1.700527
O      4.367820    0.290147   -1.876503
C      3.509013    0.114459   -0.785845
N      2.162560    0.163684   -0.968653
C      1.294371    0.013492    0.067541
C      1.779841   -0.197974    1.363304
C      3.158646   -0.265663    1.575626
C      4.037361   -0.118096    0.493499
C     -0.120092    0.076820   -0.175863
C     -1.307382    0.129523   -0.378263
C     -2.755744    0.193366   -0.623099
C     -3.375156   -1.207991   -0.481301
C     -4.895029   -1.157939   -0.683433
C     -5.548007   -0.170115    0.291270
C     -4.931334    1.227409    0.153941
C     -3.411523    1.181317    0.357458
H      6.433702   -1.336101   -0.936685
H      7.386972    0.081361   -0.354006
H      5.868909    1.654618   -1.433877
H      6.293693    0.401530   -2.655349
H      1.099133   -0.317339    2.197662
H      3.534607   -0.445582    2.574949
H     -2.910470    0.556152   -1.663257
H     -2.934014   -1.890959   -1.240232
H     -3.153240   -1.625025    0.526898
H     -5.123305   -0.856747   -1.729585
H     -5.320695   -2.171111   -0.518552
H     -6.637491   -0.112619    0.080252
H     -5.419684   -0.534350    1.334398
H     -5.382703    1.903319    0.911770
H     -5.161309    1.640009   -0.853100
H     -2.996286    2.200408    0.196030
H     -3.191387    0.882656    1.407209
