53
Lipophilicity 1202 1.7799999713897705
C     -1.827856   -0.169380   -1.812849
C     -2.946319    0.385644   -0.920001
C     -2.766887    1.901857   -0.732518
C     -3.027031   -0.393052    0.423224
N     -1.784794   -0.238990    1.192888
C     -0.853032   -1.310125    1.399232
O     -1.188984   -2.504224    1.174827
C      0.539168   -1.009425    1.868785
N      1.290242   -0.294327    0.812708
C      1.382499    1.080393    0.858365
O      0.907444    1.721159    1.837093
C      2.011690    1.795915   -0.175584
C      2.515379    1.093563   -1.273532
C      2.422432   -0.290095   -1.315214
C      1.815380   -0.983464   -0.262163
C      1.742132   -2.457085   -0.368251
C      2.562771   -3.267742    0.432041
C      2.500996   -4.660057    0.317395
C      1.631936   -5.248676   -0.605651
C      0.828133   -4.445656   -1.420397
C      0.887011   -3.053318   -1.307758
N      2.074410    3.233644   -0.128082
C      3.194141    3.999546   -0.599141
O      4.282253    3.433975   -0.892131
C      3.105551    5.489892   -0.653475
C     -4.248085    0.007791    1.236858
O     -5.355889   -0.166475    0.748231
C     -4.151164    0.594023    2.625186
F     -5.414833    0.773600    3.162136
F     -3.515789    1.820940    2.575697
F     -3.440968   -0.259808    3.449624
H     -1.971686   -1.258834   -1.975282
H     -0.831968   -0.001077   -1.351089
H     -1.845188    0.331103   -2.804489
H     -3.902762    0.228150   -1.466510
H     -3.572239    2.316530   -0.091468
H     -2.826052    2.412246   -1.717917
H     -1.780691    2.138824   -0.280598
H     -3.175304   -1.466749    0.172167
H     -1.514948    0.711776    1.527576
H      0.480417   -0.417247    2.806525
H      1.057514   -1.944882    2.162267
H      2.961050    1.615400   -2.110402
H      2.819387   -0.823540   -2.170918
H      3.245908   -2.820987    1.144138
H      3.128743   -5.282765    0.942148
H      1.585237   -6.326297   -0.694022
H      0.160698   -4.902199   -2.140082
H      0.265029   -2.440683   -1.947228
H      1.300296    3.750026    0.347397
H      2.094373    5.796796   -0.994377
H      3.857706    5.896060   -1.362569
H      3.292544    5.908304    0.357190
