30
Lipophilicity 982 0.6000000238418579
C      3.316309    0.285115    0.976160
C      2.112978   -0.202638    0.157793
N      2.542051   -1.111492   -0.907655
C      1.345907    0.984152   -0.442284
O      0.176270    0.535973   -1.129429
C     -1.003948    0.170691   -0.466690
C     -1.412720   -1.180583   -0.474801
C     -0.601833   -2.233042   -1.177758
C     -2.554869   -1.564281    0.243683
C     -3.311858   -0.613720    0.927054
C     -2.944810    0.730919    0.892188
C     -1.806998    1.140596    0.180354
C     -1.474670    2.606538    0.131413
H      2.974125    0.935533    1.809228
H      3.856297   -0.581910    1.412302
H      4.019088    0.860513    0.336147
H      1.430229   -0.750993    0.844106
H      3.278696   -0.646338   -1.487365
H      2.974544   -1.958399   -0.471875
H      1.076082    1.700646    0.360654
H      1.996553    1.519220   -1.166649
H     -0.098305   -1.815390   -2.074759
H     -1.252509   -3.066684   -1.517968
H      0.161644   -2.638265   -0.482051
H     -2.859662   -2.603209    0.275844
H     -4.192151   -0.918994    1.477999
H     -3.555939    1.457303    1.414076
H     -0.887463    2.856408   -0.776941
H     -0.898277    2.889001    1.036749
H     -2.404760    3.213331    0.100475
