24
Lipophilicity 893 2.200000047683716
C     -4.546768    0.159012    0.028499
C     -3.206472   -0.546363    0.158732
O     -2.155238    0.413802    0.093914
C     -0.790299    0.102471    0.181641
C     -0.326283   -1.218430    0.345516
C      1.044622   -1.482030    0.428211
C      1.966001   -0.430118    0.348192
C      3.343857   -0.654917    0.426877
C      4.219478    0.427105    0.341747
C      3.693812    1.713490    0.179268
O      4.467708    2.703081    0.100357
O      2.378039    1.899250    0.107318
C      1.508114    0.894826    0.184110
C      0.135561    1.150754    0.102198
H     -5.368989   -0.585613    0.078497
H     -4.601678    0.692752   -0.943925
H     -4.671995    0.891133    0.854222
H     -3.099151   -1.278949   -0.670348
H     -3.169680   -1.079983    1.133140
H     -1.016780   -2.048106    0.410046
H      1.382987   -2.503605    0.554149
H      3.738690   -1.655932    0.552755
H      5.289212    0.268508    0.401079
H     -0.214747    2.167866   -0.023715
