45
Lipophilicity 315 3.109999895095825
C     -1.884104    0.875695   -2.096911
N     -2.728540    0.198759   -1.113417
C     -2.540365   -1.024727   -0.547608
C     -1.417008   -1.956952   -0.903389
N     -0.109520   -1.332662   -0.618036
C      0.088284   -1.124793    0.838457
C      1.571725   -0.999912    1.253098
N      2.430280   -0.620399    0.121882
C      2.257732   -1.282755   -1.179016
C      0.983840   -2.124975   -1.201686
C      3.603214    0.188151    0.347368
C      4.407065   -0.017631    1.484353
C      5.545476    0.765582    1.697536
C      5.892733    1.760910    0.781288
C      5.101821    1.975094   -0.349878
C      3.962820    1.193852   -0.568157
N     -3.444968   -1.314849    0.424659
C     -4.214594   -0.212005    0.460671
C     -5.292347    0.041738    1.305729
C     -5.933411    1.289627    1.193266
C     -5.481448    2.244331    0.254177
C     -4.386972    1.958325   -0.583171
C     -3.781810    0.706178   -0.452109
H     -1.382690    0.136669   -2.755409
H     -2.498051    1.539821   -2.739990
H     -1.113930    1.478778   -1.572247
H     -1.509942   -2.185150   -1.987562
H     -1.525826   -2.918982   -0.353418
H     -0.367045   -1.951000    1.430620
H     -0.433762   -0.186678    1.127363
H      1.653652   -0.251769    2.072461
H      1.923847   -1.976445    1.651493
H      3.136623   -1.928395   -1.393318
H      2.177057   -0.516586   -1.978868
H      1.133926   -3.071047   -0.632733
H      0.764552   -2.388004   -2.260552
H      4.162074   -0.793176    2.198433
H      6.160334    0.598607    2.572519
H      6.774042    2.366642    0.948176
H      5.369233    2.749912   -1.056771
H      3.354271    1.389443   -1.440604
H     -5.622500   -0.692655    2.028936
H     -6.774108    1.521554    1.834040
H     -5.978284    3.202914    0.180366
H     -4.033374    2.688968   -1.298101
