39
Lipophilicity 1672 1.7000000476837158
C      0.302678    0.539142    2.223398
C      0.764065    0.519257    0.752770
C      1.739045   -0.625852    0.531983
N      1.501380   -1.840344    1.102659
C      2.330827   -2.895182    0.894762
N      3.421335   -2.756445    0.098183
C      3.699457   -1.569855   -0.499811
C      2.860945   -0.473526   -0.299533
F      3.135609    0.707358   -0.909580
C     -0.397359    0.500888   -0.306317
O      0.211488    0.504436   -1.581848
C     -1.268783    1.797573   -0.222242
N     -0.528414    2.980201   -0.664020
C     -0.426504    3.450885   -1.918148
N      0.340290    4.557197   -1.961155
C      0.688668    4.720884   -0.665612
N      0.166656    3.770127    0.133245
C     -1.251674   -0.784588   -0.163270
C     -0.897216   -1.933583   -0.910641
C     -1.618847   -3.123210   -0.796913
C     -2.704066   -3.202820    0.071661
F     -3.401653   -4.360108    0.182648
C     -3.062758   -2.095214    0.837234
C     -2.346687   -0.897609    0.734972
F     -2.724803    0.122084    1.541645
H      1.190400    0.547539    2.891972
H     -0.278435    1.453412    2.454286
H     -0.301342   -0.356350    2.474046
H      1.332373    1.463603    0.612474
H      2.119963   -3.847531    1.361137
H      4.571003   -1.479362   -1.134351
H     -0.506736    0.479641   -2.268972
H     -2.168438    1.677218   -0.865833
H     -1.639041    1.996109    0.799119
H     -0.897733    3.004080   -2.783979
H      1.316649    5.526189   -0.309412
H     -0.046499   -1.922323   -1.579682
H     -1.329176   -3.987421   -1.380897
H     -3.896669   -2.166498    1.524020
