41
Lipophilicity 1204 2.9000000953674316
C      2.877024   -0.335949   -1.537827
C      3.380567    0.916709   -0.818456
C      3.982995    0.600685    0.559444
C      2.939790    0.103723    1.518291
O      2.178628    0.931134    2.089837
N      2.779388   -1.303932    1.743824
C      1.584342   -1.860568    2.373073
C      0.462897   -1.907426    1.373359
C      0.393306   -2.945844    0.435628
N     -0.572644   -2.941745   -0.519860
C     -1.485261   -1.938365   -0.612196
C     -1.448755   -0.863794    0.289660
C     -0.469840   -0.862495    1.293977
C     -2.413496    0.255233    0.178301
C     -3.139000    0.658616    1.313053
C     -4.054966    1.708951    1.231142
C     -4.256309    2.370831    0.018508
F     -5.150885    3.388635   -0.057775
C     -3.532504    1.990709   -1.115008
C     -2.597747    0.936588   -1.046102
O     -1.827229    0.560081   -2.159693
C     -1.878909    1.193876   -3.434290
H      2.029784   -0.790470   -0.982720
H      2.517865   -0.060880   -2.552405
H      3.693777   -1.081237   -1.638252
H      4.165171    1.392843   -1.448572
H      2.544784    1.645301   -0.711391
H      4.797670   -0.149849    0.455107
H      4.435213    1.528633    0.971858
H      3.472591   -1.968816    1.329022
H      1.804971   -2.890529    2.728682
H      1.303989   -1.261015    3.266464
H      1.112022   -3.755395    0.460096
H     -2.240378   -1.981047   -1.386751
H     -0.415158   -0.035315    1.992784
H     -3.003981    0.150393    2.261124
H     -4.613433    2.007165    2.109566
H     -3.698929    2.529475   -2.038753
H     -2.898938    1.102880   -3.864947
H     -1.601252    2.265125   -3.339335
H     -1.157162    0.697082   -4.115671
