57
Lipophilicity 169 2.490000009536743
C     -4.109067    1.738714    2.257212
C     -4.231650    0.213544    2.120873
N     -5.512716   -0.149539    1.499284
C     -5.964262    0.323474    0.215873
C     -7.231442    0.739235    0.086911
C     -7.717548    1.262986   -1.194844
O     -8.901329    1.679038   -1.302120
C     -6.774524    1.348837   -2.358128
N     -5.733358    0.317290   -2.257186
C     -5.019705    0.398892   -0.971372
C     -3.067569   -0.475584    1.427622
C     -2.988698   -1.877215    1.490693
C     -1.951067   -2.563593    0.855206
C     -0.960006   -1.864265    0.155010
N      0.083662   -2.595876   -0.510165
C      1.436257   -2.134563   -0.637216
N      2.292338   -2.789873   -1.467188
C      3.588069   -2.402440   -1.595584
C      4.065365   -1.315157   -0.857537
C      5.394076   -0.879863   -0.958785
C      5.840503    0.219046   -0.199691
C      4.934443    0.870415    0.659674
C      3.609692    0.434978    0.761097
C      3.171224   -0.654891    0.005174
N      1.885263   -1.081262    0.099252
C      7.247316    0.684589   -0.303108
C      8.303957   -0.238893   -0.385274
C      9.619527    0.220957   -0.481333
N      9.877080    1.555057   -0.496342
C      8.878535    2.473370   -0.418955
C      7.548574    2.057513   -0.320490
C     -1.045474   -0.465204    0.065202
C     -2.082556    0.224017    0.699996
H     -4.143482    2.240220    1.268757
H     -4.952133    2.125988    2.868065
H     -3.160327    2.003305    2.771052
H     -4.241914   -0.174370    3.164733
H     -6.212977   -0.624885    2.113902
H     -7.906775    0.703690    0.933478
H     -7.336043    1.210149   -3.307289
H     -6.305633    2.356285   -2.379321
H     -6.185961   -0.625188   -2.330101
H     -4.438788    1.344283   -0.929579
H     -4.304496   -0.447243   -0.927256
H     -3.739159   -2.441668    2.030739
H     -1.913710   -3.644067    0.916189
H     -0.131456   -3.559879   -0.852416
H      4.240270   -2.944467   -2.268897
H      6.071851   -1.383228   -1.638380
H      5.255628    1.706706    1.267755
H      2.927211    0.945008    1.429840
H      8.117043   -1.304991   -0.357425
H     10.437350   -0.484725   -0.540686
H      9.116524    3.528537   -0.437131
H      6.763506    2.801829   -0.276550
H     -0.327781    0.095623   -0.518642
H     -2.113657    1.299357    0.598459
