46
Lipophilicity 908 2.4000000953674316
C      5.640822    1.747152    2.049478
N      5.451842    0.298586    1.853416
C      6.180303   -0.433341    2.902617
C      4.016525   -0.059747    1.881874
C      3.374089    0.169336    0.507087
C      1.924834   -0.313264    0.485747
O      1.364099   -0.071359   -0.799381
C      0.045351   -0.406748   -1.109540
N     -0.829941   -0.984337   -0.251960
N     -1.979024   -1.150437   -0.900623
C     -3.188904   -1.679947   -0.275560
C     -4.025167   -0.551942    0.263532
C     -5.194442   -0.145772   -0.401363
C     -5.948797    0.923773    0.091193
C     -5.539880    1.596987    1.245638
C     -4.374998    1.202437    1.909246
C     -3.617802    0.133504    1.420171
C     -1.844352   -0.669964   -2.155104
C     -2.785593   -0.608721   -3.185296
C     -2.378410   -0.042983   -4.409054
C     -1.060299    0.443256   -4.572954
C     -0.135525    0.369511   -3.514384
C     -0.572202   -0.196886   -2.320345
H      5.141967    2.320351    1.241672
H      6.721533    2.001928    1.999805
H      5.238796    2.079777    3.032648
H      6.125638   -1.526981    2.713182
H      5.760052   -0.216577    3.910429
H      7.257167   -0.157810    2.890586
H      3.892950   -1.139519    2.128067
H      3.470176    0.518372    2.662210
H      3.952594   -0.382501   -0.265719
H      3.389219    1.249567    0.251910
H      1.336559    0.234273    1.254765
H      1.887473   -1.402968    0.705268
H     -2.908453   -2.361486    0.556834
H     -3.760263   -2.289541   -1.008608
H     -5.524067   -0.655739   -1.297513
H     -6.849973    1.231677   -0.423155
H     -6.124551    2.425115    1.624852
H     -4.057322    1.726437    2.801412
H     -2.713676   -0.158794    1.939947
H     -3.792070   -0.982440   -3.059259
H     -3.080062    0.020289   -5.230533
H     -0.760863    0.876700   -5.518246
H      0.874647    0.742006   -3.624986
