52
Lipophilicity 687 3.4000000953674316
C      7.166443   -0.208011    0.567671
C      6.253035    0.835827   -0.092749
C      6.801155    1.159747   -1.495701
C      6.226797    2.100790    0.786358
O      4.943414    0.255444   -0.182948
C      3.796280    0.863327   -0.719252
O      3.851159    2.031487   -1.191791
N      2.547839    0.146309   -0.732873
C      1.398021    0.713572   -1.453294
C      0.239090   -0.284209   -1.556000
N     -0.021621   -0.904195   -0.248428
C      1.103192   -1.346999    0.590825
C      2.449797   -1.185941   -0.122890
C     -1.370778   -1.179135    0.182066
N     -2.420596   -0.977033   -0.660433
C     -3.697107   -1.231318   -0.274138
C     -3.955219   -1.712825    1.018535
O     -5.246560   -1.995397    1.491391
C     -6.456996   -1.746004    0.775905
C     -6.730265   -0.268166    0.684196
C     -7.016383    0.331402   -0.551301
C     -7.278022    1.702632   -0.606270
N     -7.264163    2.446201    0.531778
C     -7.000845    1.889130    1.743559
C     -6.733646    0.521614    1.843196
C     -2.865996   -1.919707    1.865362
N     -1.606009   -1.651237    1.437067
H      6.784435   -0.469936    1.577916
H      7.192986   -1.137113   -0.041565
H      8.204107    0.177281    0.670650
H      6.225495    1.975993   -1.977435
H      7.861756    1.486557   -1.434761
H      6.744012    0.260840   -2.146184
H      7.258325    2.475147    0.963040
H      5.651199    2.917235    0.304834
H      5.758464    1.875108    1.768301
H      1.705101    1.005583   -2.481257
H      1.049210    1.623366   -0.918136
H     -0.653063    0.261456   -1.931046
H      0.492478   -1.078492   -2.291030
H      0.973015   -2.418016    0.859680
H      1.113883   -0.747633    1.527034
H      3.258878   -1.350754    0.620681
H      2.547948   -1.957624   -0.916758
H     -4.496334   -1.060138   -0.979505
H     -7.295057   -2.222227    1.326474
H     -6.410592   -2.224585   -0.226373
H     -7.033291   -0.253461   -1.462423
H     -7.494060    2.175723   -1.554826
H     -7.000654    2.507727    2.630999
H     -6.529082    0.083179    2.812126
H     -3.021170   -2.292520    2.869232
