40
Lipophilicity 1274 2.509999990463257
C     -1.312300   -2.278604    0.678318
C     -2.206278   -1.063787    0.407030
N     -1.726063    0.103954    1.156659
C     -0.569947    0.858447    0.745045
N      0.069293    0.542254   -0.415230
C      1.169432    1.215244   -0.843399
N      1.775051    0.849369   -2.091729
C      3.178955    0.942460   -2.370220
C      4.200844    0.996908   -1.436887
C      5.344201    0.992899   -2.208304
C      6.746876    0.952141   -1.698584
N      5.004182    0.906704   -3.507683
N      3.686079    0.870382   -3.616355
C      1.636245    2.296980   -0.084890
N      1.005560    2.623188    1.072049
C     -0.077947    1.932639    1.513693
C     -0.693484    2.329334    2.753437
N     -1.187848    2.648461    3.749930
C     -3.647877   -1.365507    0.747961
C     -4.039505   -1.694946    2.057848
C     -5.382444   -1.967448    2.325255
C     -6.321343   -1.911303    1.294299
F     -7.628025   -2.173976    1.542521
C     -5.900599   -1.581299    0.004536
N     -4.588399   -1.318852   -0.237227
H     -1.706441   -3.170591    0.145872
H     -1.263100   -2.497783    1.765875
H     -0.281928   -2.085475    0.313241
H     -2.155697   -0.837232   -0.681576
H     -2.235080    0.387581    2.023883
H      1.163259    0.426705   -2.825580
H      4.130522    0.994132   -0.357266
H      7.052740   -0.103035   -1.541972
H      6.819318    1.501281   -0.736216
H      7.430858    1.425980   -2.433432
H      5.660978    0.851764   -4.317498
H      2.475289    2.892777   -0.417002
H     -3.315668   -1.737183    2.861715
H     -5.693620   -2.221096    3.330456
H     -6.616086   -1.533469   -0.805490
