24
Lipophilicity 270 2.3499999046325684
C     -1.932977   -2.313587    0.412338
C     -0.735912   -1.420390    0.209355
C      0.541544   -2.009507    0.142430
C      1.641231   -1.184168   -0.044507
N      2.925369   -1.588828   -0.129980
N      3.635936   -0.483253   -0.306315
C      2.785108    0.558845   -0.324807
O      3.152418    1.753519   -0.476447
N      1.508866    0.149853   -0.161126
C      0.302254    0.790225   -0.106059
C      0.181359    2.188003   -0.229981
C     -1.074034    2.794179   -0.166860
C     -2.219768    2.022669    0.019324
C     -2.123286    0.635825    0.144558
C     -0.867612   -0.003990    0.084676
H     -2.629608   -2.209804   -0.445936
H     -2.454955   -2.035306    1.351911
H     -1.641274   -3.382878    0.487785
H      0.677003   -3.080355    0.233205
H      4.674353   -0.451880   -0.410240
H      1.039660    2.824109   -0.375104
H     -1.159221    3.869049   -0.262911
H     -3.189148    2.502046    0.066968
H     -3.037304    0.075624    0.287722
