41
Lipophilicity 885 1.6699999570846558
C     -4.712758    1.363673   -0.790162
C     -4.442904    0.111328   -0.015807
N     -5.381694   -0.839926    0.175841
C     -4.742441   -1.803893    0.869039
C     -3.433910   -1.432286    1.078674
N     -3.245468   -0.226720    0.515031
C     -1.985560    0.521063    0.480219
C     -1.288932    0.400955   -0.891142
C     -0.934133   -1.068967   -1.259689
C      0.199414   -1.668191   -0.396259
C      1.362007   -0.716915   -0.312373
C      1.232509    0.640791   -0.536694
C     -0.046687    1.261743   -0.900419
O     -0.121762    2.491022   -1.165190
C      2.490390    1.182651   -0.362370
C      2.960402    2.491091   -0.480597
C      4.327382    2.721275   -0.246981
C      5.185794    1.653880    0.093325
C      4.686693    0.344087    0.207681
C      3.322883    0.137595   -0.022766
N      2.636442   -1.027212    0.034275
C      3.175670   -2.357290    0.314240
H     -5.805394    1.557109   -0.826957
H     -4.336847    1.249707   -1.827363
H     -4.221199    2.233228   -0.308452
H     -5.202639   -2.726780    1.195210
H     -2.674010   -2.005889    1.593570
H     -2.190297    1.590390    0.702752
H     -1.310362    0.157000    1.285449
H     -1.978554    0.786537   -1.671945
H     -1.832957   -1.717013   -1.194289
H     -0.608780   -1.090971   -2.323489
H      0.528765   -2.625696   -0.852386
H     -0.173106   -1.878283    0.628086
H      2.303410    3.308112   -0.745512
H      4.724914    3.724293   -0.331493
H      6.236838    1.844636    0.266967
H      5.348158   -0.472340    0.464262
H      2.376552   -3.033576    0.682830
H      3.617655   -2.781497   -0.611211
H      3.954518   -2.298721    1.102683
