52
Lipophilicity 72 3.5999999046325684
C      7.297820   -1.123161   -0.622822
C      6.732362   -0.069218    0.351204
C      7.314536    1.326132    0.043609
C      7.118071   -0.461495    1.787590
O      5.298360   -0.041855    0.291298
C      4.515115    0.268352   -0.835560
O      5.062068    0.536457   -1.941801
N      3.077555    0.275369   -0.724887
C      2.245701    0.727879   -1.847677
C      0.951715   -0.087598   -1.918073
N      0.318341   -0.170369   -0.593424
C      1.156004   -0.619623    0.527970
C      2.443019    0.202704    0.598903
C     -1.120618   -0.151731   -0.466702
N     -1.704634   -0.151661    0.766153
C     -3.054387   -0.126790    0.910772
C     -3.878782   -0.104916   -0.226791
O     -5.278804   -0.080666   -0.154673
C     -6.018355    0.057077    1.055257
C     -7.486399    0.058222    0.736679
C     -8.101310    1.239908    0.294307
C     -9.457210    1.225900   -0.041600
N    -10.170324    0.069506    0.042512
C     -9.598197   -1.095651    0.452076
C     -8.244759   -1.127412    0.800440
F     -7.683408   -2.301411    1.193194
C     -3.263833   -0.106997   -1.480488
N     -1.909712   -0.126742   -1.577284
H      7.133046   -0.829184   -1.681043
H      8.393054   -1.241876   -0.475151
H      6.807719   -2.106975   -0.451554
H      8.415627    1.331971    0.197936
H      6.859172    2.088193    0.715006
H      7.119282    1.626473   -1.008583
H      6.715956    0.281198    2.510978
H      8.222491   -0.506702    1.906825
H      6.692516   -1.456801    2.042670
H      2.778527    0.616937   -2.818783
H      2.000550    1.804743   -1.707386
H      0.281250    0.401351   -2.656336
H      1.178200   -1.114471   -2.279701
H      0.628663   -0.520179    1.499460
H      1.409549   -1.691781    0.384430
H      2.208083    1.233678    0.946931
H      3.113838   -0.271115    1.347828
H     -3.472838   -0.129265    1.908172
H     -5.743453    1.012998    1.552852
H     -5.771110   -0.775289    1.749694
H     -7.534024    2.158579    0.200899
H     -9.939518    2.129453   -0.384505
H    -10.192900   -1.995827    0.503419
H     -3.863615   -0.086315   -2.382406
