63
Lipophilicity 1455 1.8200000524520874
F     -5.267267   -3.334410    3.529042
C     -5.016746   -2.243243    2.719560
F     -4.627242   -2.694209    1.471737
F     -4.003134   -1.491193    3.286425
O     -6.206760   -1.463779    2.612298
C     -6.337624   -0.275473    1.873579
C     -7.580635    0.366291    1.874805
C     -7.772655    1.542286    1.148500
C     -6.723220    2.088275    0.405575
O     -6.939521    3.247244   -0.343871
C     -6.115276    3.595983   -1.451566
C     -4.685165    3.218205   -1.198262
O     -3.772164    3.825836   -1.821674
N     -4.368827    2.128060   -0.304692
C     -2.966260    1.709148   -0.141182
C     -2.613120    0.609844   -1.149378
N     -1.189467    0.237645   -1.017297
C     -0.995090   -0.810582    0.005782
C      0.505192   -1.010620    0.305703
C      1.408893   -0.435215   -0.803312
C      0.802918   -0.749760   -2.188977
C     -0.640943   -0.211788   -2.315511
N      2.771735   -0.979607   -0.652687
C      3.777207   -0.156817   -1.338085
C      5.151650   -0.606000   -0.942276
C      5.765072   -1.690410   -1.590038
C      7.034189   -2.105393   -1.181120
C      7.679686   -1.435366   -0.140147
O      8.949489   -1.838209    0.287731
C      9.792732   -1.017277    1.102225
C      8.994526   -0.089147    1.975743
O      9.521415    0.418779    3.000163
N      7.665054    0.281292    1.597462
C      7.031574   -0.369442    0.494632
N      5.790249    0.012395    0.089752
C     -5.452565    1.483778    0.412874
C     -5.272352    0.287103    1.140401
H     -8.407153   -0.054762    2.435593
H     -8.744285    2.022087    1.146844
H     -6.471893    3.054992   -2.353257
H     -6.198290    4.688157   -1.635193
H     -2.779087    1.380707    0.901666
H     -2.284489    2.573370   -0.296215
H     -2.821255    1.018785   -2.164744
H     -3.274762   -0.275133   -1.017007
H     -1.434712   -1.773379   -0.342245
H     -1.507455   -0.537631    0.953142
H      0.763605   -0.515069    1.268934
H      0.701988   -2.100682    0.430242
H      1.426477    0.671685   -0.669939
H      1.425975   -0.304291   -2.991995
H      0.795867   -1.850788   -2.345256
H     -0.631912    0.649741   -3.017365
H     -1.288413   -1.000000   -2.760074
H      2.807089   -1.951141   -1.044453
H      3.662378    0.913889   -1.056878
H      3.666237   -0.238742   -2.440865
H      5.264039   -2.208061   -2.399133
H      7.517301   -2.939351   -1.674907
H     10.437038   -1.668509    1.729107
H     10.443243   -0.407327    0.441896
H      7.154460    1.017737    2.134427
H     -4.317537   -0.210508    1.132546
