46
Lipophilicity 219 2.140000104904175
C     -6.049930   -0.897294    3.699084
O     -6.034688   -0.683967    2.291452
C     -4.869647   -0.616735    1.512533
C     -3.585865   -0.752953    2.065857
C     -2.457043   -0.685999    1.248527
C     -2.584215   -0.490339   -0.136047
C     -3.869520   -0.324245   -0.698175
O     -3.988137   -0.058936   -2.073022
C     -5.220923    0.134721   -2.758372
C     -5.002310   -0.402426    0.137002
C     -1.357981   -0.437028   -0.965586
C     -1.265103   -1.116154   -2.191115
N     -0.107134   -1.065209   -2.900096
C      0.967678   -0.368499   -2.448807
C      0.884731    0.309252   -1.226626
C      2.065767    1.047453   -0.672642
N      2.985168    0.099424   -0.030419
C      4.198096    0.780534    0.454081
C      5.150592    1.127368   -0.688077
C      6.558194    1.065021   -0.102444
C      6.447990    0.359104    1.246661
C      5.014322   -0.134129    1.359056
N     -0.270104    0.243873   -0.511503
H     -5.582121   -1.874477    3.942859
H     -7.101233   -0.909030    4.052392
H     -5.510503   -0.075650    4.215796
H     -3.448786   -0.913965    3.126537
H     -1.478254   -0.804762    1.697521
H     -5.851464   -0.775443   -2.674761
H     -5.012367    0.324160   -3.831201
H     -5.756643    1.012761   -2.340245
H     -5.997532   -0.286820   -0.269933
H     -2.091098   -1.704288   -2.568432
H      1.879792   -0.351537   -3.031638
H      1.715874    1.806755    0.063382
H      2.573174    1.583411   -1.504378
H      2.485933   -0.296855    0.801787
H      3.939096    1.704051    1.023937
H      4.934860    2.138618   -1.096176
H      5.057789    0.378350   -1.506361
H      6.962449    2.091949    0.037153
H      7.235460    0.504479   -0.783663
H      6.659396    1.080214    2.067059
H      7.164858   -0.487804    1.318014
H      4.958812   -1.184864    0.994781
H      4.652569   -0.092092    2.409432
