74
Lipophilicity 1854 2.3399999141693115
C     -1.183658    4.361780   -1.374357
N     -1.670689    3.035776   -0.968159
C     -1.849764    2.927685    0.496490
C     -3.178342    3.548491    0.964336
C     -1.800567    1.478949    0.926041
O     -1.288169    1.193072    2.042681
N     -2.402396    0.441573    0.121944
C     -2.636365   -0.920685    0.621074
C     -3.462969   -1.752625   -0.406538
C     -4.907498   -1.182354   -0.559546
C     -5.946463   -2.012842    0.206885
C     -5.995098   -3.465346   -0.305512
C     -4.624466   -3.994331   -0.772823
C     -3.475128   -3.271156   -0.064424
C     -1.325623   -1.583745    0.994633
O     -1.313313   -2.337075    2.003670
N     -0.104447   -1.374586    0.253118
C     -0.136513   -1.324713   -1.214771
C      1.180113   -1.380998    0.981413
C      1.972039   -2.660187    0.684837
C      3.298849   -2.688647    1.461556
C      3.922325   -1.290452    1.663627
N      3.463794   -0.299030    0.670775
C      4.020086   -0.523594   -0.686090
C      5.377700    0.176881   -0.830578
C      5.292835    1.631181   -0.438649
C      5.833039    2.065836    0.784721
C      5.726141    3.408631    1.162919
C      5.062514    4.320323    0.337092
C      4.516938    3.895523   -0.877528
C      4.632591    2.554888   -1.266297
C      1.995106   -0.088922    0.699755
H     -0.200054    4.580256   -0.900902
H     -1.035960    4.373257   -2.473697
H     -1.912253    5.157862   -1.113929
H     -2.589162    2.880731   -1.450079
H     -1.014554    3.454969    1.018820
H     -4.044188    3.031210    0.496549
H     -3.219807    4.629781    0.712975
H     -3.267141    3.453160    2.070215
H     -2.742759    0.680362   -0.839362
H     -3.245102   -0.840456    1.550143
H     -2.975976   -1.649479   -1.402693
H     -5.185434   -1.178843   -1.634085
H     -4.970633   -0.129137   -0.212375
H     -6.954777   -1.551428    0.112534
H     -5.689382   -2.008722    1.290810
H     -6.385374   -4.118746    0.506751
H     -6.715683   -3.531024   -1.146892
H     -4.562324   -5.083590   -0.567227
H     -4.523572   -3.848699   -1.867802
H     -3.587351   -3.423298    1.031495
H     -2.512379   -3.729616   -0.376708
H     -0.638228   -0.395213   -1.556058
H      0.884431   -1.336882   -1.646313
H     -0.673393   -2.213910   -1.611900
H      0.982048   -1.388771    2.077833
H      1.363540   -3.548202    0.963738
H      2.179139   -2.744751   -0.401260
H      4.018598   -3.339892    0.919421
H      3.132580   -3.151763    2.457709
H      3.647268   -0.920964    2.676077
H      5.031878   -1.371293    1.651379
H      3.350712   -0.123037   -1.481405
H      4.156943   -1.607228   -0.900014
H      6.141020   -0.351870   -0.211391
H      5.705577    0.099940   -1.889106
H      6.329005    1.364484    1.448039
H      6.143219    3.737490    2.106477
H      4.973536    5.356020    0.634685
H      3.994145    4.601119   -1.510746
H      4.200080    2.232754   -2.203930
H      1.648995    0.423692   -0.225305
H      1.770174    0.640426    1.512794
