17
qm7 3640 -1725.97
O          2.21780       -0.33690        1.39380
C          2.47270       -0.00950        0.03760
C          2.97680        1.38690       -0.02680
C          4.14500        1.80770       -0.52950
C          4.31490        3.28280       -0.38030
C          2.90790        3.75160       -0.01560
C          2.17830        2.52490        0.53100
H          1.94420       -1.26850        1.40750
H          1.54290       -0.10700       -0.53130
H          3.20460       -0.71890       -0.36200
H          4.90310        1.16570       -0.95790
H          5.03320        3.50400        0.41570
H          4.65770        3.74960       -1.30830
H          2.39480        4.11580       -0.91530
H          2.92170        4.57720        0.70320
H          1.13820        2.50760        0.19140
H          2.19700        2.50810        1.62590
