14
qm7 5153 -1391.19
C          2.72710       -0.90330       -0.27430
N          2.85620        0.07320        0.80490
C          3.08550        1.44180        0.27620
C          2.67060        2.43370        1.34350
O          3.25860        3.49090        1.56070
C          4.53730        1.65250       -0.12770
O          5.40930        0.78600       -0.07190
H          2.52630       -1.88960        0.15550
H          3.63920       -0.98090       -0.87330
H          1.88810       -0.65680       -0.93300
H          3.68100       -0.18570        1.35820
H          2.44310        1.63190       -0.59080
H          1.72760        2.20410        1.87000
H          4.77290        2.65620       -0.52380
