20
freesolv 161 0.3232935667037964
C     -2.725718    0.377608   -1.133686
C     -2.319327   -0.326710    0.160505
C     -0.813450   -0.623581    0.227541
C      0.028764    0.644617    0.415086
C      1.471830    0.290066    0.586118
O      1.942146    0.117804    1.743934
O      2.274181    0.109659   -0.544173
C      3.646866   -0.252961   -0.458688
H     -2.301356    1.402004   -1.174152
H     -2.381158   -0.201657   -2.016579
H     -3.832178    0.460661   -1.176234
H     -2.869809   -1.290672    0.219244
H     -2.627556    0.289444    1.033020
H     -0.635820   -1.303018    1.090403
H     -0.493573   -1.158571   -0.693972
H     -0.322389    1.205926    1.308497
H     -0.068952    1.305030   -0.471889
H      4.210869    0.522641    0.101531
H      4.066886   -0.334194   -1.482150
H      3.749743   -1.234095    0.051520
