24
freesolv 132 0.8850880861282349
C      3.524424   -0.006134    0.531195
C      2.694009   -0.264332   -0.725735
C      1.236729    0.199533   -0.580370
C      0.428200   -0.686532    0.377404
C     -1.016151   -0.262315    0.395059
C     -1.448625    0.743174    1.276179
C     -2.783724    1.159171    1.269147
C     -3.692536    0.582525    0.377584
C     -3.266861   -0.408311   -0.511467
C     -1.932655   -0.827290   -0.507822
H      3.458675    1.062108    0.828358
H      4.588097   -0.250519    0.326682
H      3.179033   -0.645717    1.369449
H      2.728339   -1.346048   -0.979906
H      3.156946    0.293225   -1.568649
H      1.210501    1.255914   -0.232782
H      0.763519    0.164542   -1.586511
H      0.843041   -0.616315    1.405506
H      0.503264   -1.750109    0.060766
H     -0.752282    1.204450    1.965622
H     -3.113010    1.931122    1.952622
H     -4.725219    0.906556    0.372542
H     -3.970075   -0.849411   -1.206017
H     -1.613639   -1.589288   -1.208191
