21
freesolv 255 0.7420385479927063
C     -3.111127   -0.303419    0.274852
C     -2.247393    0.823574   -0.281483
C     -0.786775    0.473459   -0.183771
C     -0.152949   -0.219145   -1.227441
C      1.196186   -0.570903   -1.123910
C      1.923265   -0.254696    0.033685
C      1.291743    0.441531    1.075369
C     -0.057376    0.793454    0.972199
C      3.380335   -0.598063    0.128445
H     -4.183013   -0.025411    0.193452
H     -2.870016   -0.481662    1.344688
H     -2.941492   -1.238855   -0.300160
H     -2.526034    1.009883   -1.341610
H     -2.455411    1.758135    0.283801
H     -0.703011   -0.484441   -2.121898
H      1.672355   -1.093044   -1.944694
H      1.842400    0.708599    1.968961
H     -0.532949    1.317385    1.792156
H      3.603243   -1.522611   -0.445653
H      3.983890    0.237870   -0.282611
H      3.674127   -0.771638    1.185622
