21
freesolv 306 0.8512763381004333
C      1.980080   -0.181450    0.991979
C      1.102298    0.428884   -0.105199
C      1.927704    0.662286   -1.369681
O      0.042066   -0.459175   -0.419035
C     -1.125374   -0.176996    0.335084
C     -2.034046    0.770669   -0.454254
C     -1.851664   -1.492475    0.612040
H      2.831548    0.493231    1.224517
H      1.387857   -0.325383    1.919744
H      2.375935   -1.167931    0.668296
H      0.743701    1.430342    0.233571
H      2.767950    1.358705   -1.160906
H      1.286043    1.112582   -2.156678
H      2.337051   -0.297848   -1.751145
H     -0.900463    0.280850    1.328094
H     -2.298734    0.325361   -1.437238
H     -1.517142    1.736874   -0.631600
H     -2.966006    0.974634    0.115056
H     -2.127082   -1.994134   -0.340544
H     -1.189206   -2.169948    1.191729
H     -2.772518   -1.309077    1.206172
