18
freesolv 308 1.2674204111099243
C      2.042737    1.099353    0.154604
C      2.310554   -0.257484    0.017015
C      1.262488   -1.169919   -0.087595
C     -0.082177   -0.743076   -0.048781
C     -0.356344    0.658274    0.031502
C      0.725646    1.554399    0.165976
C     -1.767779    1.222933    0.050062
F     -2.556769    0.615998   -0.908540
F     -2.326584    1.027303    1.299426
F     -1.771700    2.581838   -0.217045
C     -1.176159   -1.792251   -0.166120
F     -2.204705   -1.536787    0.720799
F     -1.671043   -1.800418   -1.457037
F     -0.694180   -3.058699    0.119869
H      2.859283    1.803856    0.248172
H      3.335239   -0.605919   -0.003972
H      1.512635   -2.217423   -0.195952
H      0.558858    2.618024    0.277616
