23
freesolv 336 0.34149986505508423
C      3.143466    1.317731   -0.002556
C      2.949494   -0.192292    0.132947
C      1.477083   -0.587174    0.323455
C      0.645507   -0.391020   -0.950401
C     -0.748476   -0.891823   -0.743164
O     -1.044259   -2.075228   -1.064709
O     -1.698570   -0.054134   -0.152308
C     -3.036169   -0.470197    0.101485
C     -3.809125    0.667257    0.749384
H      4.229218    1.549638   -0.020480
H      2.696124    1.688672   -0.947749
H      2.683606    1.847850    0.858417
H      3.522999   -0.538160    1.020173
H      3.371018   -0.704002   -0.759467
H      1.444318   -1.661330    0.611255
H      1.034944   -0.000829    1.159208
H      1.113210   -0.937920   -1.798180
H      0.596602    0.686017   -1.214963
H     -3.529404   -0.752240   -0.854018
H     -3.033287   -1.347625    0.784104
H     -4.852989    0.345533    0.948946
H     -3.329550    0.953159    1.709477
H     -3.825759    1.548120    0.073154
