14
freesolv 220 1.5873311758041382
C      0.070463    1.447424   -0.364766
C      0.090720   -0.065419   -0.608528
C      1.166270   -0.736068    0.252836
C     -1.285896   -0.675904   -0.324340
H     -0.688305    1.930013   -1.017155
H      1.062001    1.887069   -0.605179
H     -0.173757    1.671161    0.696141
H      0.338137   -0.243834   -1.678292
H      0.956885   -0.581744    1.333376
H      2.165369   -0.311490    0.016682
H      1.197228   -1.827078    0.045539
H     -2.054023   -0.207965   -0.976449
H     -1.271858   -1.766499   -0.535619
H     -1.573233   -0.519667    0.737852
