19
freesolv 421 0.25567013025283813
C     -2.165137    0.855037    0.019924
C     -1.548988   -0.222074   -0.872042
C     -0.589976   -1.156256   -0.112921
C      0.643964   -0.462031    0.491066
C      1.560689    0.158380   -0.569660
N      2.794475    0.627809    0.048494
O      2.833910    1.753630    0.585766
O      3.841605   -0.244852    0.231214
H     -2.618748    0.398594    0.925263
H     -2.959430    1.389625   -0.542460
H     -1.398844    1.598733    0.321946
H     -1.034136    0.252995   -1.733117
H     -2.373607   -0.840226   -1.288568
H     -0.250005   -1.955426   -0.807163
H     -1.150423   -1.657356    0.706309
H      1.221704   -1.227590    1.053872
H      0.333540    0.313190    1.223030
H      1.052972    1.014478   -1.063180
H      1.806435   -0.596658   -1.347710
