24
freesolv 199 0.8122628331184387
C      3.829225    0.114393   -0.233078
C      2.339463    0.100257   -0.058791
C      1.496865    0.100161   -1.179423
C      0.109271    0.049674   -1.019258
C     -0.459716   -0.014388    0.266828
C      0.391164   -0.033040    1.385774
C      1.778711    0.017510    1.223651
C     -1.964042   -0.071233    0.456433
C     -2.639367    1.188548   -0.098487
C     -2.553012   -1.337401   -0.176632
H      4.110950    0.671060   -1.152223
H      4.201353   -0.928304   -0.312747
H      4.320252    0.609458    0.631719
H      1.913863    0.139805   -2.178247
H     -0.518936    0.056969   -1.900461
H     -0.017285   -0.090372    2.387033
H      2.415694   -0.007281    2.099299
H     -2.198613   -0.112518    1.543745
H     -2.516958    1.257368   -1.200221
H     -3.725385    1.171586    0.134998
H     -2.198122    2.094433    0.369670
H     -2.426328   -1.330351   -1.280029
H     -2.051424   -2.238344    0.237144
H     -3.637622   -1.407987    0.053304
