24
freesolv 414 0.34670165181159973
C      3.198811   -1.341806   -0.182009
C      1.831430   -0.734428   -0.064830
C      1.690105    0.638697    0.171585
C      0.419031    1.233273    0.249276
C     -0.736835    0.430235    0.071146
C     -2.039842    0.969632    0.138171
C     -3.157491    0.152151   -0.047285
C     -2.998888   -1.209631   -0.302255
C     -1.720874   -1.764968   -0.372942
C     -0.586494   -0.958331   -0.187385
C      0.693274   -1.524551   -0.259489
C      0.324749    2.714520    0.516338
H      3.924182   -0.803291    0.464471
H      3.539863   -1.282163   -1.236609
H      3.184311   -2.406607    0.134414
H      2.578668    1.246562    0.296627
H     -2.208264    2.020213    0.332377
H     -4.151509    0.577340    0.006368
H     -3.869225   -1.836986   -0.445542
H     -1.618867   -2.825345   -0.571799
H      0.806850   -2.583070   -0.466181
H     -0.237967    2.892136    1.456840
H     -0.192537    3.216859   -0.327959
H      1.327519    3.179559    0.626676
