39
freesolv 371 0.07620800286531448
C      4.064246   -0.486083   -1.267638
C      2.710509   -1.171965   -1.110464
C      1.584000   -0.308682   -1.688449
C      0.207140   -0.980303   -1.585145
N     -0.324808   -0.997877   -0.206768
C     -0.732138   -2.273773    0.409459
C      0.440829   -3.232879    0.603846
C     -0.909363    0.218559    0.309572
C     -0.115082    1.122033    1.053917
C     -0.654725    2.344546    1.476945
C     -1.999430    2.656807    1.245559
C     -2.798594    1.745212    0.544594
C     -2.277822    0.528826    0.075683
N     -3.167389   -0.380028   -0.599695
O     -2.792910   -1.025027   -1.598969
O     -4.499841   -0.413216   -0.256893
C     -2.563852    3.988766    1.675936
F     -3.900776    3.864890    2.012727
F     -2.443656    4.890244    0.634572
F     -1.885617    4.480802    2.778188
N      1.224199    0.785992    1.438619
O      2.116422    1.659051    1.427508
O      1.463893   -0.400687    2.088433
H      4.859979   -1.133831   -0.843671
H      4.069056    0.483895   -0.726187
H      4.285610   -0.308917   -2.341644
H      2.535637   -1.354809   -0.033412
H      2.740594   -2.151352   -1.635475
H      1.796835   -0.133164   -2.766090
H      1.562351    0.685881   -1.197307
H     -0.484685   -0.408859   -2.239713
H      0.255958   -2.006067   -2.009961
H     -1.190781   -2.088556    1.406413
H     -1.496969   -2.769005   -0.224714
H      1.195717   -2.797199    1.286662
H      0.069543   -4.173971    1.061228
H      0.916265   -3.488849   -0.364297
H     -0.026375    3.038635    2.021302
H     -3.833969    1.990958    0.342913
