29
freesolv 396 0.4585403800010681
C     -4.514272   -0.680889    0.695780
C     -3.221613   -0.501972    1.491909
C     -1.961668   -0.745645    0.646334
C     -1.694095    0.392971   -0.353117
C     -0.439564    0.146494   -1.206845
C      0.863611    0.334374   -0.415428
C      2.083579    0.213748   -1.333456
C      3.345980    0.394001   -0.551680
O      3.924804   -0.611006   -0.055388
O      3.846656    1.681986   -0.341431
C      5.025841    1.931141    0.413891
H     -4.532346   -1.675096    0.200848
H     -5.382785   -0.614633    1.384460
H     -4.620875    0.115677   -0.068892
H     -3.227956   -1.232508    2.329876
H     -3.194492    0.516880    1.935948
H     -1.103092   -0.828178    1.345064
H     -2.052130   -1.713741    0.106543
H     -1.598331    1.360103    0.187427
H     -2.557109    0.478980   -1.046302
H     -0.474703   -0.876047   -1.643033
H     -0.452305    0.871783   -2.050088
H      0.936295   -0.438962    0.378757
H      0.864506    1.338167    0.064451
H      2.090801   -0.784303   -1.824129
H      2.037436    0.990387   -2.127384
H      5.219508    3.023116    0.437843
H      4.894866    1.565910    1.454552
H      5.893452    1.421751   -0.056511
