18
freesolv 398 0.7810520529747009
C      2.902096    0.071091    0.137845
C      1.406094    0.047825    0.031829
C      0.746956   -1.107196   -0.415789
C     -0.649425   -1.142645   -0.478871
C     -1.403853   -0.023509   -0.095109
C     -0.745921    1.118431    0.386553
C      0.650461    1.153880    0.449634
C     -2.902573   -0.076266   -0.124380
H      3.288545    1.103408   -0.000152
H      3.206988   -0.299066    1.138882
H      3.360123   -0.573805   -0.642145
H      1.313501   -1.981109   -0.713089
H     -1.141894   -2.043443   -0.824011
H     -1.313602    1.980008    0.715958
H      1.141793    2.042341    0.826879
H     -3.326787    0.935469   -0.299019
H     -3.277292   -0.463657    0.845962
H     -3.255209   -0.741757   -0.940978
