20
freesolv 419 1.597734808921814
C     -1.096314   -0.386077    1.317348
C     -0.845119    0.241897   -0.064186
C     -1.606861   -0.541012   -1.144897
C      0.666004    0.396379   -0.419741
C      1.461932   -0.916803   -0.329532
C      1.342817    1.481933    0.431512
H     -0.754347   -1.441872    1.346122
H     -0.580650    0.187097    2.114175
H     -2.183569   -0.370367    1.545314
H     -1.292223    1.261153   -0.046650
H     -1.298700   -1.607082   -1.162723
H     -1.427915   -0.095287   -2.146418
H     -2.698810   -0.499317   -0.943794
H      0.729088    0.745579   -1.474810
H      1.518290   -1.280441    0.717877
H      2.498960   -0.753534   -0.693197
H      1.005893   -1.702450   -0.965267
H      1.421257    1.170350    1.493844
H      0.771905    2.432981    0.374030
H      2.368360    1.676875    0.050995
