20
freesolv 243 0.3024863600730896
C     -2.870533    0.381333   -0.439069
C     -2.136206    0.184861    0.886855
C     -0.610077    0.274535    0.737398
C     -0.018190   -0.928189   -0.008411
O      1.407033   -0.883800    0.027426
C      2.170635   -0.018654   -0.764283
O      1.618716    0.763154   -1.585534
C      3.652790    0.005487   -0.606006
H     -3.964558    0.417829   -0.252724
H     -2.666011   -0.462110   -1.130433
H     -2.561763    1.335334   -0.916932
H     -2.467319    0.980065    1.589463
H     -2.421316   -0.794240    1.329533
H     -0.338485    1.218082    0.216946
H     -0.162174    0.311927    1.754261
H     -0.347567   -1.865572    0.488112
H     -0.366753   -0.955040   -1.063018
H      3.939758    0.845964    0.059431
H      4.002678   -0.948668   -0.159207
H      4.139343    0.137703   -1.595378
