17
freesolv 444 0.5001547932624817
C     -1.835290   -0.891475   -0.423413
C     -0.809374    0.042546    0.228868
C     -0.891202    1.441780   -0.395398
C      0.606013   -0.539477    0.096285
O      1.535420    0.262597    0.819479
N      2.882433   -0.037614    0.864163
O      3.340043   -1.033799    0.266074
O      3.731924    0.773451    1.577395
H     -1.624951   -1.008916   -1.508407
H     -2.860491   -0.481940   -0.298752
H     -1.803985   -1.891973    0.058516
H     -1.056781    0.125807    1.310431
H     -0.640468    1.404224   -1.477439
H     -0.186532    2.133804    0.112573
H     -1.916700    1.853105   -0.279589
H      0.625452   -1.571313    0.510346
H      0.904488   -0.580808   -0.974438
