18
freesolv 445 1.2674204111099243
C      0.051289    1.982139   -0.092583
C      1.242782    1.258365   -0.016386
C      1.217601   -0.143342    0.077739
C     -0.020938   -0.809191    0.037795
C     -1.223559   -0.086936   -0.066985
C     -1.176146    1.316868   -0.103901
C     -2.548740   -0.807251   -0.046135
F     -2.441414   -2.042793   -0.660887
F     -3.516330   -0.075840   -0.713266
F     -2.946676   -0.989473    1.265034
C      2.503790   -0.929889    0.127275
F      2.888623   -1.253764   -1.160253
F      3.509445   -0.190419    0.725689
F      2.334332   -2.095592    0.854202
H      0.079258    3.063045   -0.143071
H      2.183103    1.795096   -0.024600
H     -0.048926   -1.890859    0.088318
H     -2.087494    1.899836   -0.147986
