29
freesolv 279 1.7511879205703735
C      2.766145   -0.539466   -0.941213
C      2.178838   -0.115386    0.413951
C      3.092017    0.928187    1.071304
C      0.745395    0.448105    0.274288
C     -0.276356   -0.626142   -0.158932
C     -1.768201   -0.173469   -0.132610
C     -2.630976   -1.330672   -0.680102
C     -2.232213    0.138461    1.306940
C     -1.989037    1.065899   -1.025295
H      2.212361   -1.406928   -1.354985
H      3.824824   -0.854006   -0.820261
H      2.725124    0.300267   -1.667739
H      2.154384   -1.006333    1.080080
H      2.702307    1.203912    2.074477
H      3.153233    1.844614    0.445467
H      4.114953    0.515810    1.205291
H      0.752256    1.282643   -0.459476
H      0.442849    0.860836    1.258204
H     -0.159038   -1.516858    0.497698
H     -0.028297   -0.947566   -1.193367
H     -3.708782   -1.058199   -0.677983
H     -2.341071   -1.577898   -1.724418
H     -2.503800   -2.242977   -0.057750
H     -1.747010    1.054424    1.702406
H     -1.999339   -0.709395    1.986527
H     -3.329612    0.313594    1.333625
H     -3.071714    1.306702   -1.098966
H     -1.601053    0.883534   -2.050635
H     -1.478185    1.958304   -0.606525
