32
freesolv 153 1.8110086917877197
C      4.175350   -0.462330   -0.474663
C      3.299669    0.736310   -0.837355
C      2.576679    1.340163    0.379163
C      1.609875    0.382466    1.105429
C      0.517849   -0.247266    0.221331
C     -0.439913    0.795001   -0.379987
C     -1.519537    0.168388   -1.281732
C     -2.493144   -0.789389   -0.570763
C     -3.290693   -0.110044    0.551784
C     -4.375414   -1.036435    1.093998
H      4.874564   -0.198021    0.346901
H      3.549809   -1.325475   -0.165965
H      4.770000   -0.766786   -1.361556
H      3.951815    1.522175   -1.276243
H      2.570449    0.447075   -1.622774
H      2.026616    2.248755    0.055683
H      3.339515    1.684845    1.111024
H      2.194996   -0.432757    1.582161
H      1.120546    0.941269    1.932860
H      0.976137   -0.858742   -0.583960
H     -0.059503   -0.939789    0.868631
H      0.139536    1.498081   -1.013984
H     -0.909759    1.394851    0.427546
H     -1.020863   -0.383502   -2.108257
H     -2.106111    0.988869   -1.749940
H     -3.204623   -1.170486   -1.336010
H     -1.948087   -1.670486   -0.171676
H     -2.612751    0.158433    1.389477
H     -3.768671    0.817459    0.168090
H     -3.921584   -1.967272    1.496214
H     -4.924808   -0.526245    1.913085
H     -5.097944   -1.297116    0.291488
