24
freesolv 197 1.5431158542633057
C      2.175879   -0.357280   -0.990608
C      2.022801    0.841969   -0.058531
C      1.091170    0.588689    1.144976
C     -0.401891    0.270099    0.858279
C     -1.064725    1.071197   -0.263192
C     -2.232685    0.209190   -0.703632
C     -1.756679   -1.226902   -0.535745
C     -0.696343   -1.207204    0.564214
H      1.228271   -0.562160   -1.529011
H      2.488864   -1.255821   -0.417931
H      2.956957   -0.136129   -1.748155
H      1.695257    1.733649   -0.632214
H      3.030467    1.087240    0.342097
H      1.521832   -0.221824    1.773015
H      1.121028    1.508291    1.769751
H     -0.958435    0.518109    1.792163
H     -1.407706    2.066517    0.093810
H     -0.397456    1.206713   -1.137087
H     -2.522398    0.421707   -1.755674
H     -3.104741    0.394686   -0.037900
H     -2.603059   -1.897063   -0.270459
H     -1.301463   -1.579713   -1.487534
H      0.202872   -1.768500    0.239608
H     -1.087816   -1.705460    1.478718
