7
freesolv 381 0.8642808794975281
C     -0.894959   -0.349686    0.078639
C      0.463333    0.181039   -0.040714
C      1.582397    0.618289   -0.139044
H     -1.487658   -0.053265   -0.811167
H     -1.372556    0.057958    0.993318
H     -0.855412   -1.456498    0.144338
H      2.564855    1.002163   -0.225370
