26
freesolv 47 0.40132057666778564
C     -3.883062    0.584355    0.774674
C     -2.596562   -0.218316    0.603026
C     -2.025609   -0.052058   -0.812631
C     -0.832170   -0.983773   -1.090856
C      0.397350   -0.748721   -0.195128
C      1.002166    0.650825   -0.363554
O      2.228902    0.753940    0.356966
C      3.437119    0.213084   -0.097065
O      3.502180   -0.384333   -1.205770
C      4.653153    0.310897    0.759720
H     -4.265238    0.457478    1.809506
H     -4.659019    0.227741    0.064217
H     -3.690437    1.663898    0.596702
H     -1.860636    0.139706    1.353660
H     -2.813193   -1.290852    0.799694
H     -1.737496    1.006495   -0.985351
H     -2.820723   -0.296648   -1.550856
H     -0.529364   -0.862826   -2.153884
H     -1.163288   -2.038042   -0.967674
H      0.141897   -0.921543    0.871326
H      1.162114   -1.506677   -0.468677
H      1.169959    0.883262   -1.438183
H      0.302094    1.406250    0.049021
H      5.549325    0.492720    0.129728
H      4.785995   -0.636406    1.322326
H      4.544544    1.149547    1.478979
