14
freesolv 425 0.3441007435321808
C     -1.760873    0.434301    0.599915
C     -1.078675   -0.503719   -0.393393
C      0.411962   -0.661381   -0.094118
O      1.083005    0.582254   -0.277089
C      2.456599    0.732524   -0.074499
O      3.171500   -0.241306    0.284132
H     -2.843126    0.503146    0.361393
H     -1.320537    1.452127    0.539000
H     -1.649849    0.047380    1.635282
H     -1.565999   -1.501177   -0.339377
H     -1.210503   -0.109402   -1.424281
H      0.553046   -1.018696    0.949689
H      0.840364   -1.416647   -0.788398
H      2.913086    1.700594   -0.228047
