9
freesolv 214 1.7511879205703735
C      0.127667   -0.562543    0.000934
C      0.115018   -0.341208    1.321714
F     -0.151290    0.895205    1.821779
F      0.370806   -1.360576    2.182944
C     -0.150206    0.538600   -0.984261
F     -1.418160    1.049778   -0.773692
F      0.782675    1.549141   -0.836304
F     -0.075013    0.045479   -2.274070
F      0.398504   -1.813877   -0.459043
