13
freesolv 430 0.1204233169555664
C     -1.763005    0.229225   -0.007549
C     -0.290511    0.487096   -0.312920
C      0.602641   -0.580217    0.323343
N      2.002264   -0.308489    0.020715
O      2.500442   -0.717705   -1.047933
O      2.710523    0.574633    0.801645
H     -1.938930    0.249358    1.089152
H     -2.073653   -0.758016   -0.411232
H     -2.384438    1.018063   -0.481376
H     -0.143544    0.486247   -1.414907
H     -0.009282    1.488890    0.078628
H      0.326881   -1.586046   -0.063657
H      0.460613   -0.583040    1.426092
