18
freesolv 58 0.4143250584602356
C     -0.605003    0.749651    1.095302
C     -0.234401   -0.229625   -0.046349
C     -0.433917    0.446460   -1.421206
C     -1.191635   -1.431236    0.034694
O      1.084500   -0.762684    0.076324
C      2.087828    0.215163    0.272778
H     -0.039943    1.701991    1.010148
H     -0.385720    0.290524    2.083084
H     -1.686207    1.004970    1.057150
H     -1.510723    0.653379   -1.604121
H     -0.059047   -0.214236   -2.232046
H      0.096753    1.418392   -1.482914
H     -0.967351   -2.159219   -0.774874
H     -1.072340   -1.953350    1.008679
H     -2.251764   -1.110990   -0.064837
H      3.075632   -0.265614    0.120291
H      2.069924    0.592553    1.316975
H      2.023415    1.053873   -0.449078
