23
freesolv 16 0.4897511899471283
C     -0.969900   -0.481143   -2.155350
N     -0.767628   -0.510134   -0.702927
C     -1.820039   -1.033219    0.184265
C     -2.436870    0.086883    1.023686
F     -3.497947   -0.416601    1.753688
F     -1.500061    0.605208    1.899476
F     -2.898342    1.096627    0.198276
C      0.484871   -0.043544   -0.161790
C      0.986592    1.220296   -0.520648
C      2.198769    1.675750    0.006742
C      2.922365    0.874523    0.893054
C      2.435443   -0.384343    1.252745
C      1.223135   -0.843789    0.728842
H     -1.026220    0.567952   -2.511465
H     -0.125610   -0.995423   -2.661338
H     -1.910387   -0.992166   -2.449274
H     -1.410904   -1.820006    0.851160
H     -2.630776   -1.512232   -0.405857
H      0.432341    1.861672   -1.192750
H      2.575648    2.652018   -0.269623
H      3.860783    1.228450    1.299953
H      2.999880   -1.006858    1.934962
H      0.874859   -1.829921    1.004173
