9
freesolv 433 1.3324429988861084
C     -1.097651   -0.245228   -0.021419
C      0.167871    0.554064    0.011813
C      1.361564   -0.043349    0.020825
H     -1.972186    0.438463   -0.023955
H     -1.127593   -0.869958   -0.939087
H     -1.156273   -0.899919    0.873703
H      0.112978    1.638550    0.028868
H      2.267533    0.553493    0.045022
H      1.443758   -1.126116    0.004230
