17
freesolv 299 0.5157601833343506
C     -1.839797    0.439607    0.314961
C     -0.897640    0.130165   -0.845872
C      0.582249    0.129531   -0.420929
C      1.480400   -0.042312   -1.645246
O      0.841755   -0.944507    0.484354
N      0.786433   -0.797604    1.857030
O      0.983120   -1.789704    2.586072
O      0.563092    0.431107    2.435607
H     -1.570020    1.408618    0.786020
H     -2.881432    0.509448   -0.063351
H     -1.800898   -0.368543    1.074716
H     -1.166246   -0.859815   -1.275371
H     -1.055123    0.900463   -1.632526
H      0.841862    1.104950    0.046580
H      1.326629    0.795159   -2.358990
H      2.545805   -0.043385   -1.331188
H      1.259810   -1.003178   -2.157965
