23
freesolv 191 1.6549545526504517
C      1.489160    1.687238   -0.020960
C      0.895745    0.525875   -0.826495
C      0.122316   -0.539234    0.012126
C      1.095600   -1.262256    0.971900
C     -0.446478   -1.599427   -0.959301
C     -1.032592    0.077436    0.861737
C     -2.071274    0.879025    0.069027
H      2.224195    1.323539    0.725105
H      0.695265    2.270545    0.487743
H      2.021211    2.373684   -0.712855
H      0.230116    0.951129   -1.608126
H      1.729444    0.028552   -1.370098
H      0.587200   -2.112273    1.476906
H      1.972442   -1.663629    0.419202
H      1.463728   -0.579011    1.765397
H     -1.075597   -1.132066   -1.745281
H     -1.062784   -2.346664   -0.414111
H      0.377479   -2.140564   -1.473397
H     -1.568596   -0.737626    1.396771
H     -0.613375    0.738512    1.650462
H     -2.845461    1.260098    0.767898
H     -2.579570    0.243083   -0.683555
H     -1.608176    1.754034   -0.430168
