10
freesolv 378 0.9475096464157104
C     -1.127334    0.651138   -0.121372
C     -0.351783   -0.629631   -0.403114
C      1.092391   -0.372353   -0.383474
C      2.279371   -0.161727   -0.367503
H     -2.216653    0.436666   -0.140391
H     -0.902988    1.417294   -0.894518
H     -0.861983    1.051598    0.880775
H     -0.595709   -1.390329    0.368186
H     -0.636563   -1.025985   -1.400545
H      3.321252    0.023328   -0.353448
