11
freesolv 420 0.3232935667037964
C     -1.254325   -0.519387    0.035967
C     -0.427681    0.744457   -0.171851
O      0.768458    0.698229    0.603952
C      1.879761   -0.077151    0.258459
O      1.896341   -0.758237   -0.801599
H     -0.698371   -1.409903   -0.324319
H     -1.487290   -0.646653    1.114314
H     -2.205838   -0.440284   -0.530815
H     -1.027338    1.619902    0.155199
H     -0.186358    0.875270   -1.249247
H      2.742642   -0.086243    0.909940
