15
freesolv 85 0.5573745965957642
C     -2.151286    0.342764    0.200309
C     -0.721355    0.554280   -0.288816
C      0.126196   -0.706638   -0.093714
O      1.422317   -0.509990   -0.627520
C      2.323656   -0.136126    0.391349
H     -2.635289   -0.481427   -0.365827
H     -2.155867    0.096439    1.283538
H     -2.738410    1.272373    0.045137
H     -0.742409    0.821859   -1.367569
H     -0.270852    1.400627    0.272262
H      0.126973   -1.012418    0.980526
H     -0.345913   -1.540593   -0.655989
H      3.304100    0.098057   -0.071654
H      2.479445   -0.973619    1.106606
H      1.978694    0.774413    0.929360
