16
freesolv 213 1.0645501613616943
C     -1.429517   -0.077527   -2.031066
C     -0.393508   -0.699865   -1.099469
C     -0.076964    0.230161    0.077275
C      0.962591   -0.399230    1.008141
C      1.257211    0.499574    2.129807
C      1.499641    1.237738    3.051642
H     -1.048801    0.879501   -2.447288
H     -2.377142    0.111605   -1.483047
H     -1.638246   -0.772184   -2.871818
H     -0.788272   -1.666731   -0.717697
H      0.534411   -0.902093   -1.677821
H     -1.010618    0.430772    0.648942
H      0.314019    1.196540   -0.312600
H      0.578951   -1.360030    1.413016
H      1.903930   -0.594073    0.451223
H      1.712313    1.885842    3.860761
