12
freesolv 438 0.04239629954099655
C     -0.904850    0.997854    0.470592
C     -0.650067   -0.244090   -0.383727
C      0.647585   -0.962247    0.004600
C      1.830166   -0.168547   -0.354913
N      2.761872    0.456770   -0.637952
H     -1.873871    1.455191    0.179459
H     -0.101454    1.748964    0.317093
H     -0.951266    0.723981    1.546112
H     -0.620965    0.042359   -1.458116
H     -1.499769   -0.947005   -0.244510
H      0.700728   -1.931803   -0.534168
H      0.661891   -1.171425    1.095529
