26
freesolv 404 0.5495718717575073
C     -1.998335   -0.882560   -0.737400
C     -2.061720   -0.024573    0.532859
C     -3.484314    0.510701    0.736879
C     -1.056472    1.141168    0.486018
O      0.287049    0.658412    0.475298
C      1.043476    0.480429   -0.690437
O      0.583135    0.817529   -1.815504
C      2.412915   -0.129946   -0.600833
C      2.314687   -1.573154   -0.099185
C      3.311589    0.707362    0.313493
H     -1.010182   -1.380809   -0.819393
H     -2.170034   -0.259583   -1.641363
H     -2.770871   -1.680125   -0.701335
H     -1.810260   -0.670941    1.402824
H     -3.543442    1.096205    1.679180
H     -4.205065   -0.331472    0.811712
H     -3.782260    1.164183   -0.111320
H     -1.253021    1.805585   -0.384408
H     -1.181902    1.757282    1.402028
H      2.872088   -0.146486   -1.614575
H      3.323528   -2.037551   -0.072391
H      1.675400   -2.171760   -0.783144
H      1.877365   -1.607765    0.922164
H      3.379361    1.748713   -0.068217
H      4.336463    0.279225    0.336533
H      2.910821    0.729933    1.349998
