15
freesolv 107 1.301232099533081
C     -0.444030   -1.201949   -0.106120
C     -1.241689    0.078760   -0.302468
C     -0.387444    1.184694    0.286360
C      1.047313    0.737678    0.070335
C      1.017596   -0.787059    0.052319
H     -0.575724   -1.884906   -0.973539
H     -0.790119   -1.720447    0.815266
H     -2.232491    0.023016    0.198413
H     -1.390152    0.263718   -1.389552
H     -0.589083    2.160375   -0.206554
H     -0.591318    1.272806    1.376631
H      1.409286    1.116542   -0.911152
H      1.711570    1.121619    0.874837
H      1.630158   -1.175961   -0.790386
H      1.426127   -1.188885    1.005612
