18
freesolv 393 1.309034824371338
C      1.248417   -0.756027    0.238517
C     -0.016213   -1.451886   -0.280671
C     -1.279579   -0.717668    0.186121
C     -1.248417    0.756026   -0.238517
C      0.016213    1.451886    0.280670
C      1.279579    0.717668   -0.186120
H      1.284401   -0.825873    1.348057
H      2.144519   -1.273588   -0.166399
H      0.006294   -1.486846   -1.392213
H     -0.039855   -2.497635    0.094398
H     -2.173422   -1.208070   -0.255892
H     -1.363595   -0.785691    1.293175
H     -2.144520    1.273587    0.166398
H     -1.284400    0.825871   -1.348058
H      0.039855    2.497635   -0.094398
H     -0.006295    1.486847    1.392212
H      2.173422    1.208070    0.255895
H      1.363596    0.785693   -1.293174
