16
freesolv 22 0.3519034683704376
C     -2.767587    0.139575   -0.308633
O     -1.675894   -0.774451   -0.321099
C     -0.338015   -0.412468   -0.104803
C      0.638504   -1.416451   -0.145077
C      1.985432   -1.104566    0.064471
C      2.367099    0.215595    0.316309
C      1.402221    1.225290    0.358864
C      0.053914    0.917325    0.149764
H     -2.632779    0.906194   -1.100691
H     -2.846109    0.627026    0.686084
H     -3.707256   -0.415250   -0.507510
H      0.351477   -2.442098   -0.339597
H      2.733055   -1.886540    0.031556
H      3.409870    0.456099    0.478389
H      1.699125    2.247718    0.554062
H     -0.673056    1.717003    0.187911
