26
freesolv 89 1.6549545526504517
C      1.222677   -1.606630    0.283367
C      1.153194   -0.070115    0.348820
C      2.531224    0.494813   -0.054203
C     -0.003128    0.523331   -0.538064
C      0.035187    2.069475   -0.533051
C     -1.457135    0.046201   -0.176244
C     -1.842031   -1.300944   -0.812489
C     -1.762379    0.056798    1.329849
H      2.182943   -1.983678    0.695621
H      1.130436   -1.963167   -0.764709
H      0.435406   -2.062146    0.912702
H      0.987215    0.219550    1.409315
H      3.346885   -0.011666    0.504918
H      2.707817    0.357783   -1.142618
H      2.608590    1.571554    0.201431
H      0.196130    0.224221   -1.591546
H     -0.830393    2.496764   -1.082153
H      0.027437    2.461396    0.505930
H      0.937527    2.445184   -1.057845
H     -2.170960    0.767796   -0.633329
H     -1.544661   -1.329013   -1.882017
H     -2.944720   -1.431523   -0.767063
H     -1.392626   -2.163885   -0.289019
H     -1.201725   -0.734946    1.865530
H     -1.506211    1.042379    1.771104
H     -2.846700   -0.119532    1.495764
