26
freesolv 265 0.4091232717037201
C     -3.256911    1.573887   -0.574859
C     -3.261671    0.242579    0.176372
C     -2.353212   -0.811482   -0.490345
C     -1.007464   -1.008011    0.227788
C     -0.096682    0.221267    0.134288
C      1.258671   -0.091128    0.684104
O      1.490831    0.080735    1.912022
O      2.238299   -0.621202   -0.163147
C      3.562911   -0.930403    0.265483
C      4.388053    0.341369    0.424341
H     -2.234330    1.998904   -0.627657
H     -3.644005    1.432971   -1.606492
H     -3.913273    2.298626   -0.048682
H     -4.306808   -0.137004    0.185575
H     -2.968594    0.412439    1.235260
H     -2.884130   -1.788425   -0.467669
H     -2.178854   -0.574998   -1.563359
H     -1.186290   -1.263759    1.295547
H     -0.493345   -1.875218   -0.243148
H      0.007995    0.537182   -0.926180
H     -0.533330    1.063210    0.712276
H      3.538565   -1.497232    1.221587
H      4.042141   -1.572460   -0.503255
H      4.403090    0.905024   -0.532403
H      3.958399    0.985301    1.219756
H      5.429946    0.077827    0.703342
