12
freesolv 225 1.3480483293533325
C     -1.391310   -0.407657   -0.270175
C     -0.392582    0.083447    0.774176
C      0.811822    0.711253    0.128719
C      1.719738   -0.018521   -0.526205
H     -1.713345    0.433768   -0.920383
H     -0.938983   -1.204370   -0.898080
H     -2.285144   -0.825374    0.239233
H     -0.076713   -0.762997    1.421865
H     -0.891788    0.840087    1.416759
H      0.963296    1.782387    0.224889
H      1.608991   -1.094373   -0.622084
H      2.586015    0.462349   -0.968716
