15
qm7 2470 -1605.05
C          0.97290       -0.05780       -0.00940
C          2.43990        0.09980        0.00090
C          3.27980        1.19210        0.00730
C          4.60910        0.68510        0.01610
C          5.87180        1.45890        0.02550
C          4.47690       -0.68810        0.01440
O          3.16920       -1.04930        0.00510
H          0.47330        0.91580       -0.00160
H          0.64170       -0.61780        0.87040
H          0.65220       -0.59840       -0.90500
H          2.97190        2.22870        0.00580
H          5.67700        2.53590        0.01170
H          6.47870        1.21310       -0.85170
H          6.45380        1.23120        0.92420
H          5.18370       -1.50650        0.01880
