14
qm7 5762 -1413.76
N          0.44410        0.66690        0.11120
C          1.75210        0.26280        0.18430
C          2.83360        1.01070       -0.05610
C          4.19690        0.42890        0.07420
O          4.38390       -0.76320        0.31710
C          5.36800        1.38610       -0.11830
O          6.61890        0.73330        0.04780
H         -0.21140       -0.08400       -0.09930
H          0.27670        1.50540       -0.43910
H          1.85350       -0.78140        0.48540
H          2.75780        2.05370       -0.33420
H          5.30290        2.19160        0.61780
H          5.33150        1.79990       -1.12980
H          6.41470       -0.21170        0.20790
