13
qm7 5864 -1370.22
N          1.31580       -0.51580       -0.35040
C          2.66270       -0.59800       -0.54030
O          3.16240       -1.53690       -1.14610
C          3.44700        0.54490        0.05280
C          4.93710        0.37920       -0.21450
C          5.68970        1.49830        0.36100
N          6.26810        2.39220        0.82260
H          0.86480        0.24720        0.13540
H          0.73870       -1.25590       -0.73040
H          3.25270        0.57680        1.13190
H          3.08120        1.48200       -0.38470
H          5.12470        0.32680       -1.29380
H          5.29600       -0.56430        0.21440
