20
qm7 1647 -1928.73
C          0.99790        0.03520        0.13010
N          2.44950        0.00800       -0.03520
C          2.92800       -1.28640       -0.53930
C          2.62810       -1.53170       -2.02000
C          3.13740       -0.38410       -2.88520
C          2.63660        0.95760       -2.36010
C          2.93560        1.11680       -0.86760
H          0.68360        0.98240        0.58190
H          0.67770       -0.75620        0.81690
H          0.45160       -0.09010       -0.80990
H          2.51410       -2.10440        0.06310
H          4.01430       -1.33260       -0.38620
H          3.10020       -2.46760       -2.33930
H          1.54970       -1.65580       -2.17130
H          4.23510       -0.38750       -2.88510
H          2.81710       -0.52470       -3.92380
H          3.11490        1.77040       -2.91850
H          1.55880        1.04390       -2.54080
H          4.02210        1.19590       -0.73120
H          2.52680        2.06870       -0.50750
