8
qm7 46 -799.52
O          1.00030       -0.00220       -0.01150
C          2.42000        0.00000        0.00000
C          2.90200        1.36120        0.00000
C          3.29930        2.48310        0.00000
H          0.72310       -0.93170       -0.01060
H          2.77240       -0.54150       -0.88320
H          2.75800       -0.53630        0.89200
H          3.64380        3.49150       -0.00010
