14
qm7 6085 -1435.95
O          1.42780        0.04690        0.91550
C          2.39340        0.03420        0.16110
N          2.98460       -1.14340       -0.19320
C          4.02230       -1.27060       -1.17570
C          4.90020       -0.04480       -1.15520
C          3.99290        1.15610       -1.30960
O          2.93520        1.17660       -0.33570
H          2.50380       -1.96380        0.15340
H          4.59720       -2.17350       -0.94960
H          3.54260       -1.40240       -2.15150
H          5.42620        0.01400       -0.19450
H          5.64900       -0.07910       -1.95220
H          4.57090        2.07710       -1.18270
H          3.53490        1.18930       -2.30440
