16
qm7 4953 -1553.3
C          1.49200        2.45040       -1.03700
C          2.92500        2.02610       -1.13590
O          3.49500        1.75490       -2.18330
O          3.48830        2.00330        0.10110
C          4.86760        1.58930        0.14700
C          5.80720        2.75050       -0.20230
N          5.70400        3.83960        0.77320
H          1.43360        3.46830       -0.64320
H          0.94300        1.75710       -0.39420
H          1.03860        2.43320       -2.03210
H          5.03340        0.73740       -0.52400
H          5.06370        1.23300        1.16470
H          5.56750        3.15030       -1.19260
H          6.84070        2.39090       -0.22180
H          4.72990        4.13550        0.83570
H          6.22890        4.64430        0.43380
