10
qm7 6653 -1180.52
N          0.86680        0.04130       -0.02580
C          2.02710        0.03410       -0.01550
C          3.45910        0.02360       -0.00270
C          4.21830        1.17410        0.00450
S          5.89770        0.83670        0.01930
C          5.61510       -0.85140        0.01610
C          4.26970       -1.15100        0.00400
H          3.87630        2.20110        0.00190
H          6.44860       -1.54120        0.02320
H          3.88910       -2.16610        0.00020
