19
qm7 1943 -1897.95
C          1.03400        0.03380       -0.03440
C          2.52140       -0.05600       -0.07290
C          3.21210       -0.71610       -1.22960
C          3.31280        0.78360       -1.05540
C          4.59940        1.49080       -0.63740
C          5.97550        0.98780       -1.00380
C          5.45050        2.23830       -1.63790
H          0.72520        0.87530        0.59260
H          0.61360       -0.88190        0.39170
H          0.60370        0.17470       -1.03070
H          2.93970       -0.21030        0.91600
H          2.61420       -1.08710       -2.05450
H          4.08200       -1.32480       -1.01140
H          2.71210        1.37030       -1.75300
H          4.52590        1.97140        0.33970
H          6.05910        0.10580       -1.62750
H          6.76080        1.08120       -0.26200
H          5.87810        3.18540       -1.33040
H          5.16960        2.19580       -2.68390
