15
qm7 1645 -1538.28
C          1.15810        0.02530        0.17890
N          2.59950        0.05050        0.27090
C          3.31730       -1.18540       -0.02000
C          4.64050       -0.65690       -0.49240
C          4.70720        0.67890       -0.54680
C          3.38000        1.11970       -0.09210
N          3.06820        2.36530       -0.06910
H          0.71190        0.90890        0.64480
H          0.75710       -0.85230        0.69700
H          0.83890       -0.01600       -0.86780
H          2.83230       -1.76880       -0.80960
H          3.42990       -1.79250        0.88290
H          5.45630       -1.30910       -0.76930
H          5.50660        1.32870       -0.85130
H          2.12520        2.46250        0.30750
