14
qm7 6206 -1456.81
O          3.23900       -1.44400        0.63870
C          2.88620       -0.48970       -0.34780
C          2.98360        0.85820        0.28460
C          3.76010        1.85750       -0.16790
C          3.86750        3.20700        0.48780
C          3.47070        4.27160       -0.44630
N          3.16580        5.11770       -1.18120
H          3.19100       -2.31630        0.21310
H          1.85940       -0.67960       -0.67450
H          3.56070       -0.59700       -1.20300
H          2.37470        1.00010        1.17510
H          4.37620        1.69880       -1.05180
H          4.90500        3.36150        0.80490
H          3.24620        3.25730        1.38920
