22
qm7 1186 -2061.5
C          1.59340        2.08310       -1.40420
C          2.85520        2.35560       -0.59920
C          3.96360        1.35940       -0.94690
C          5.24160        1.53830       -0.10010
C          6.22740        0.40500       -0.40980
C          5.90930        2.91960       -0.25460
N          6.27710        3.24020       -1.62950
H          0.81180        2.80200       -1.13870
H          1.21010        1.07660       -1.20760
H          1.78710        2.17380       -2.47810
H          2.62050        2.29230        0.46940
H          3.18150        3.38030       -0.80330
H          4.20360        1.43560       -2.01480
H          3.57970        0.34250       -0.79030
H          4.95960        1.43650        0.95680
H          6.50150        0.38180       -1.46950
H          5.78660       -0.56630       -0.15960
H          7.14440        0.51350        0.17910
H          6.80950        2.96090        0.37010
H          5.23980        3.70050        0.12070
H          6.97140        2.57470       -1.96620
H          6.72690        4.15440       -1.65390
