19
qm7 2633 -1847.46
C          2.37750       -1.45780       -0.50590
C          1.86760       -0.12510        0.02150
C          2.96850        0.76360        0.54620
C          3.66400        0.32490        1.79880
O          3.85120        1.26310       -0.47250
C          2.97130        2.22590        0.11960
C          3.65580        3.30750        0.87700
H          1.54980       -2.04050       -0.92170
H          2.83840       -2.05170        0.28850
H          3.12240       -1.31180       -1.29390
H          1.13840       -0.30360        0.82100
H          1.32360        0.38080       -0.78630
H          4.48290        0.99140        2.08440
H          4.09540       -0.67360        1.67750
H          2.95390        0.29160        2.63080
H          2.14320        2.59750       -0.47080
H          4.68010        3.04290        1.15750
H          3.09620        3.54370        1.78670
H          3.70780        4.21470        0.26670
