10
qm7 864 -1115.25
O          1.21120        0.09330        0.35370
C          2.38600        0.03790        0.01180
C          3.19320       -1.24030       -0.06290
C          4.48780       -0.69580       -0.51780
C          4.36180        0.61520       -0.64980
O          3.12420        1.14400       -0.35050
H          2.76100       -1.92150       -0.79860
H          3.27300       -1.69890        0.92480
H          5.38120       -1.27090       -0.70870
H          5.09800        1.33810       -0.96190
