14
qm7 4232 -1457.93
C          0.93690       -0.06830        0.01450
C          2.45500        0.02450        0.00400
C          2.93640        1.43300        0.00070
N          3.15050        2.07980        1.15390
O          3.58440        3.34540        0.79770
C          3.62610        3.44250       -0.55270
C          3.22560        2.25740       -1.11060
H          0.62060       -1.11620        0.01250
H          0.50430        0.41950       -0.86560
H          0.51710        0.41230        0.90470
H          2.84130       -0.49470       -0.88150
H          2.85690       -0.50500        0.87610
H          3.95330        4.39460       -0.94370
H          3.15100        2.02040       -2.16070
