13
qm7 6932 -1408.87
C          2.74730       -1.19620        0.33350
C          2.28780        0.04780        0.13600
C          3.06040        1.24910        0.05770
N          2.49580        2.44780       -0.14370
N          3.52580        3.30620       -0.15560
C          4.73490        2.70850        0.03040
C          4.46900        1.36790        0.17290
H          2.05640       -2.03220        0.37380
H          3.80100       -1.41690        0.45830
H          1.21360        0.17850        0.02050
H          3.32730        4.29110       -0.29660
H          5.65430        3.27520        0.04470
H          5.19440        0.58440        0.33740
