14
qm7 5845 -1410.52
N          1.30550       -0.05540        0.90270
C          1.95400        0.29750       -0.25200
O          1.57620       -0.16870       -1.32670
C          3.14560        1.29340       -0.04360
C          2.97760        2.72130       -0.57610
C          3.39510        3.15530        0.82280
O          3.27830        1.80310        1.32730
H          1.61620        0.31680        1.79280
H          0.53260       -0.70370        0.85830
H          4.09560        0.83460       -0.34840
H          1.95510        2.99820       -0.84790
H          3.66430        3.00400       -1.37740
H          4.42100        3.52420        0.91500
H          2.70540        3.83830        1.32570
