18
qm7 5063 -1726.03
C          0.85360       -0.44440       -0.21950
N          2.30260       -0.29870       -0.39000
C          2.71770       -0.95110       -1.63850
C          2.65830        1.13550       -0.39790
C          4.16860        1.33340       -0.37970
C          4.92420        0.79120        0.80590
O          4.75010        1.93030       -1.28860
H          0.53110        0.00160        0.72680
H          0.57610       -1.50310       -0.17770
H          0.29150        0.02830       -1.03370
H          2.43440       -2.00930       -1.62700
H          3.80620       -0.92800       -1.75190
H          2.26600       -0.48360       -2.52000
H          2.26740        1.63540        0.49810
H          2.24060        1.65070       -1.27150
H          4.48440        1.17400        1.72980
H          5.96700        1.11930        0.75520
H          4.89920       -0.30100        0.79810
