12
qm7 6430 -1254.55
C          0.91120        0.07340       -0.00780
C          2.39950        0.00630       -0.00080
C          3.22910        1.05850        0.00370
C          4.64010        0.62680        0.01140
O          5.58440        1.39770        0.01670
N          4.70880       -0.74200        0.01170
S          3.21700       -1.53000        0.00340
H          0.55660        1.10980       -0.00130
H          0.49660       -0.42470        0.87490
H          0.50590       -0.41080       -0.90240
H          2.96440        2.10220        0.00240
H          5.60130       -1.21690        0.01720
