12
qm7 1580 -1270.57
C          0.74120        0.09860        0.06060
C          2.07800       -0.00720        0.02450
N          2.83140       -1.16620        0.00190
C          2.43670       -2.46560        0.01300
N          3.20950       -3.49270       -0.01260
C          2.87110        1.19030        0.00520
N          3.54470        2.13420       -0.01130
H          0.24930        1.06820        0.07550
H          0.09080       -0.76840        0.07610
H          3.83450       -1.01080       -0.02800
H          1.34610       -2.61960        0.04770
H          4.19200       -3.21360       -0.04390
