17
qm7 358 -1624.5
C          1.70340       -0.46000       -1.12350
C          2.68390       -0.16490        0.00040
C          3.03420        1.29370        0.05260
C          4.28220        1.76840       -0.09310
C          4.64690        3.21670       -0.04470
N          5.60400        3.43770        1.02680
H          1.45840       -1.52680       -1.14100
H          2.12620       -0.19360       -2.09790
H          0.77040        0.09800       -0.99230
H          3.58150       -0.78060       -0.13300
H          2.23760       -0.45400        0.95880
H          2.21240        1.98450        0.23150
H          5.10510        1.07780       -0.26830
H          3.76670        3.84970        0.10940
H          5.09800        3.50390       -1.00050
H          5.15650        3.21090        1.91360
H          5.82780        4.42970        1.07030
