13
qm7 6598 -1310.14
C          2.92580       -1.18640        0.47720
N          2.37400        0.07650        0.03360
C          3.10100        1.22470        0.01420
C          2.53020        2.46410       -0.17520
S          3.76150        3.65420       -0.13820
N          5.01810        2.59760        0.11360
C          4.51580        1.36460        0.16410
H          2.17580       -1.97500        0.35950
H          3.20560       -1.14050        1.53460
H          3.80030       -1.47010       -0.11720
H          1.35810        0.12220        0.06150
H          1.49560        2.72850       -0.32890
H          5.22320        0.56100        0.31690
