14
qm7 5935 -1444.57
O          1.02810        0.06920       -0.04110
C          2.22840        0.03700        0.01910
C          3.47350        1.05960        0.06780
C          4.07490        0.03300       -0.96560
C          3.46150       -1.03790        0.03750
N          4.25180       -0.78570        1.27530
C          4.22460        0.69420        1.33780
H          3.32300        2.08860       -0.24430
H          5.16490        0.03200       -1.07590
H          3.63110        0.05190       -1.96910
H          3.31250       -2.05840       -0.30230
H          3.81580       -1.16400        2.11760
H          5.24270        1.09550        1.34370
H          3.69500        1.04070        2.23120
