13
qm7 6481 -1400.16
C          0.96610        0.02500       -0.00620
C          2.44400        0.05830       -0.00290
C          3.26850        1.10860        0.00160
C          4.59150        0.50490        0.00270
N          4.59860       -0.78380       -0.00020
C          3.28560       -1.15230       -0.00350
N          2.94520       -2.38300       -0.00740
H          0.54310        1.03450        0.00410
H          0.59160       -0.50500        0.87550
H          0.59560       -0.48590       -0.90030
H          3.04860        2.15940        0.00360
H          5.48550        1.14440        0.00550
H          1.92950       -2.47680       -0.00980
