13
qm7 80 -1306.46
C          1.91050       -0.66080       -1.19040
C          2.06820        0.29640       -0.26710
C          3.23690        1.16650       -0.13080
C          3.51010        2.19770       -1.19450
C          3.01870        2.62930        0.15600
H          1.01210       -1.26870       -1.21610
H          2.67430       -0.85170       -1.93730
H          1.27040        0.43650        0.46190
H          4.09570        0.69690        0.33890
H          2.82710        2.28210       -2.03250
H          4.54480        2.39840       -1.44810
H          3.72080        3.12460        0.81730
H          2.00540        3.00900        0.22560
