12
qm7 6691 -1242.45
O          1.95470       -0.42800       -1.28690
C          2.43860       -0.04870       -0.00580
C          2.88700        1.36790       -0.00470
C          2.06750        2.47500       -0.14230
S          3.01830        3.89530       -0.07230
N          4.46770        3.11800        0.13640
C          4.24190        1.80740        0.13660
H          1.70720       -1.36570       -1.22850
H          3.26210       -0.71900        0.26340
H          1.63290       -0.18940        0.72330
H          0.99700        2.51430       -0.28390
H          5.10590        1.16410        0.24940
