13
qm7 2416 -1405.33
C          1.00150       -0.03990       -0.00710
C          2.46970        0.11460        0.00090
C          3.31090        1.20920        0.00440
C          4.61610        0.68020        0.01200
O          5.78230        1.33980        0.01770
C          4.50830       -0.68500        0.01270
O          3.19500       -1.04190        0.00590
H          0.50420        0.93490        0.00130
H          0.67050       -0.59910        0.87340
H          0.67850       -0.58000       -0.90220
H          3.00530        2.24470        0.00180
H          5.62360        2.29860        0.01590
H          5.22020       -1.49690        0.01730
