15
qm7 2783 -1582.93
C          1.30400        0.14460        0.26980
C          2.79040        0.12200       -0.00910
C          3.47950       -1.15880        0.10480
C          2.92100       -2.32880        0.44670
C          3.39250        1.28050       -0.34350
C          4.82150        1.49240       -0.66040
O          5.24950        2.61110       -0.92450
H          0.87360        1.14500        0.14690
H          1.09770       -0.16860        1.29910
H          0.76970       -0.51900       -0.41890
H          4.54620       -1.18720       -0.10060
H          1.86770       -2.44220        0.67950
H          3.52830       -3.22830        0.50350
H          2.81730        2.20140       -0.40400
H          5.47910        0.61280       -0.65170
