17
qm7 3422 -1648.5
C          2.41570       -0.51820        0.08900
O          3.69570        0.10290        0.14860
C          3.75120        1.48020        0.13340
C          2.69600        2.31010        0.08450
C          5.17100        2.01350        0.16160
C          5.91670        1.61730        1.43790
O          6.23050        0.22650        1.44860
H          2.56810       -1.60130        0.09830
H          1.89640       -0.25840       -0.83910
H          1.81340       -0.25490        0.96460
H          1.66970        1.96430        0.05670
H          2.83260        3.38790        0.06850
H          5.16880        3.10710        0.08230
H          5.70240        1.62330       -0.71520
H          5.33460        1.85050        2.33530
H          6.86450        2.16160        1.49780
H          5.41820       -0.23720        1.16480
