19
qm7 3443 -1904.03
C          0.38400        0.19460       -0.06590
C          1.89690        0.32650        0.07380
C          2.46090        1.73280        0.14020
C          1.72740        2.85720        0.05870
C          3.96870        1.81240        0.28080
C          4.39880        1.71360        1.71710
C          5.20470        0.76250        2.20750
H          0.10240       -0.86310       -0.11340
H          0.02320        0.67480       -0.98230
H         -0.13550        0.63910        0.79010
H          2.35810       -0.18930       -0.77720
H          2.19930       -0.21650        0.97710
H          0.64780        2.84520       -0.04860
H          2.19240        3.83790        0.10860
H          4.33800        2.76470       -0.12010
H          4.43840        1.03220       -0.33120
H          4.02910        2.48720        2.38840
H          5.60350       -0.02750        1.57930
H          5.48020        0.75830        3.25750
