19
qm7 2751 -1849.77
C          0.66670        0.51960       -0.62640
C          2.14910        0.64620       -0.76690
C          2.94470        1.20730        0.15430
C          4.43510        1.33470        0.00620
C          4.90840        2.78790        0.01290
C          4.39610        3.59160       -1.17680
O          4.95340        4.90070       -1.14300
H          0.16990        1.02730       -1.45880
H          0.30070        0.95820        0.30730
H          0.37850       -0.53580       -0.64530
H          2.57720        0.25050       -1.68650
H          2.51380        1.59350        1.07710
H          4.78180        0.84100       -0.90990
H          4.90650        0.80510        0.84290
H          6.00560        2.80770        0.00920
H          4.61020        3.28340        0.94590
H          3.30600        3.68570       -1.16860
H          4.69460        3.12420       -2.12010
H          4.63760        5.32880       -0.32910
