19
qm7 3676 -1897.8
C          1.00090       -0.05350        0.00250
C          2.52000        0.00000        0.00000
C          3.00200        1.36120        0.00000
C          3.39930        2.48310        0.00000
C          3.88130        3.84430        0.00000
C          4.94320        4.04130       -1.08060
C          2.72740        4.82520       -0.20150
H          0.65720       -1.09280        0.00220
H          0.58560        0.44230       -0.88170
H          0.58860        0.44080        0.88900
H          2.89590       -0.53280       -0.88070
H          2.89880       -0.53400        0.87860
H          4.34320        4.06040        0.97130
H          4.53880        3.85050       -2.08140
H          5.78760        3.35940       -0.92970
H          5.33200        5.06500       -1.06230
H          2.23070        4.66910       -1.16590
H          3.08590        5.85960       -0.16900
H          1.97120        4.70790        0.58290
