16
qm7 4872 -1645.86
C          0.64880       -0.04820        0.20260
N          1.97990        0.50000       -0.01390
C          0.83140        1.39920       -0.19310
C          0.62080        2.52980        0.79260
C          0.26660        3.70910       -0.07140
C          0.17920        3.36650       -1.36760
C          0.46070        1.90490       -1.57290
H          0.39660       -0.27800        1.23030
H          0.29390       -0.75950       -0.53300
H          2.36010        0.21240       -0.91660
H          1.52420        2.73880        1.37280
H         -0.20530        2.30780        1.47700
H          0.11480        4.70620        0.31730
H         -0.05400        4.04920       -2.17160
H         -0.43620        1.40220       -1.94820
H          1.27670        1.77190       -2.29070
