12
qm7 281 -1242.71
C          1.08830        0.05110        0.15790
C          2.41100        0.03170       -0.01860
C          3.29150       -1.20560       -0.08200
N          4.67740       -0.68780       -0.38670
C          4.50980        0.60300       -0.42940
N          3.26220        1.07290       -0.20740
H          0.53310        0.98200        0.17990
H          0.52930       -0.87060        0.28400
H          2.97830       -1.88190       -0.88340
H          3.31270       -1.73160        0.87760
H          5.29870        1.34210       -0.63540
H          2.95870        2.02940       -0.29520
