17
qm7 3381 -1708.55
C          2.79990       -0.14510       -0.24270
O          1.97170        0.99830       -0.07250
C          2.55670        2.25220       -0.03480
C          1.50740        3.31390        0.16620
C          3.87950        2.48730       -0.16310
C          4.54380        3.77220       -0.12570
C          5.86750        3.90840       -0.28350
H          2.15610       -1.02960       -0.23880
H          3.50890       -0.24230        0.58570
H          3.31960       -0.11260       -1.20560
H          0.98770        3.14530        1.11540
H          0.76800        3.25980       -0.64030
H          1.89470        4.33380        0.18180
H          4.55640        1.64980       -0.31070
H          3.95610        4.66890        0.03900
H          6.52320        3.06030       -0.45220
H          6.32680        4.89170       -0.24690
