17
qm7 343 -1624.54
C          3.69020       -1.69770        1.21830
C          3.25380       -0.88840        0.02850
C          2.63660       -1.45920       -1.01920
C          3.50330        0.60450        0.08890
C          4.99440        0.96560        0.05330
N          5.18610        2.41600        0.06480
H          4.78030       -1.69710        1.30600
H          3.36460       -2.74030        1.14590
H          3.26490       -1.28240        2.13720
H          2.44330       -2.52790       -1.05260
H          2.30300       -0.87500       -1.87280
H          3.04350        1.00240        1.00330
H          2.99380        1.10160       -0.74750
H          5.46430        0.54850       -0.84440
H          5.50930        0.54460        0.92250
H          4.76190        2.82110       -0.76920
H          6.18290        2.62130        0.00400
