13
qm7 3001 -1364.02
C          1.00000        0.00000        0.00000
C          2.44400        0.00000        0.00000
C          3.63420        0.00000        0.00000
C          5.07810        0.00000        0.00000
O          5.55950       -0.70100       -1.14330
C          5.61880        1.42090       -0.01420
O          6.08920        1.99660        0.96650
H          0.60600        1.02090        0.01180
H          0.60590       -0.52060        0.87820
H          0.60600       -0.50020       -0.89000
H          5.47540       -0.50440        0.88630
H          4.96710       -0.49450       -1.88640
H          5.51190        1.95680       -0.97300
