17
qm7 313 -1611.45
C          2.40650       -0.48680       -1.49300
C          2.48710        0.01820       -0.06230
C          3.25190        1.33100       -0.00340
C          2.54470        2.60380       -0.52090
N          3.13650        3.34690        0.61670
C          3.24290        2.06640        1.35530
H          1.87240       -1.44120       -1.53110
H          3.40680       -0.63730       -1.91370
H          1.87770        0.22600       -2.13490
H          2.99390       -0.73120        0.55530
H          1.47440        0.13740        0.33890
H          4.27190        1.22600       -0.40230
H          1.44900        2.57260       -0.49280
H          2.86020        2.95120       -1.50890
H          4.04580        3.75400        0.39480
H          4.14990        1.95840        1.95710
H          2.37370        1.86240        1.99150
