15
qm7 2536 -1587.54
C          1.00860        0.05590        0.11830
C          2.50240       -0.04580       -0.16240
O          2.72040       -1.17920       -1.04910
C          3.33750       -0.63150       -2.15680
C          3.56160        0.67900       -2.12090
C          3.07400        1.16350       -0.86560
C          3.13880        2.42730       -0.43340
H          0.77920        0.88720        0.79190
H          0.64590       -0.87140        0.57430
H          0.43930        0.19040       -0.80910
H          3.05370       -0.24560        0.76440
H          3.57140       -1.33260       -2.93930
H          4.02950        1.26840       -2.89240
H          2.75240        2.70720        0.54080
H          3.58410        3.21080       -1.03780
