14
qm7 1753 -1450.41
C          1.00850       -0.01820       -0.00190
N          2.46320        0.01270        0.03140
C          2.96070        1.38570        0.00000
C          4.40470        1.38570        0.00000
C          5.59500        1.38570        0.00000
C          7.12750        1.38590       -0.00080
C          8.32610        1.38580       -0.00110
H          0.66520       -1.05700        0.02890
H          0.61690        0.43810       -0.91700
H          0.58100        0.49500        0.86560
H          2.83160       -0.48910       -0.77560
H          2.59360        1.93540        0.87440
H          2.59240        1.90240       -0.89420
H          9.39130        1.38440        0.00030
