19
qm7 1610 -1914.48
C          1.04020       -0.07530       -0.05420
C          2.53170        0.08040       -0.00920
C          3.44150       -0.59540       -1.08970
C          4.51810       -0.31800        0.00660
C          3.39380       -0.75220        0.99870
C          4.57480        1.20270        0.12330
C          3.07290        1.50960        0.11050
H          0.57390        0.33090        0.84980
H          0.75340       -1.12950       -0.13090
H          0.61520        0.44840       -0.91700
H          3.55920       -0.06280       -2.03840
H          3.23640       -1.65140       -1.30320
H          5.44580       -0.88690       -0.01500
H          3.18280       -1.82770        1.04250
H          3.46620       -0.36800        2.02080
H          5.05040        1.52880        1.05360
H          5.09340        1.66420       -0.72300
H          2.79430        2.13450       -0.74430
H          2.75200        2.00210        1.03420
