11
qm7 6496 -1272.56
C          0.85550        0.15450       -0.00440
C          2.05370        0.09080       -0.00090
C          3.47810        0.01400        0.00340
C          4.32670        1.10060        0.00500
C          5.69980        0.71300        0.00960
C          5.84690       -0.65650        0.01130
S          4.33780       -1.46330        0.00730
H         -0.20910        0.20690       -0.00760
H          3.98280        2.12790        0.00310
H          6.53430        1.40330        0.01170
H          6.76660       -1.22540        0.01460
