16
qm7 3872 -1570.9
C         -1.25200       -0.00160        0.94500
C         -0.59700       -1.01610       -0.01880
C          0.89840       -1.20850        0.26880
O          1.65560       -0.00080        0.08480
C          0.89900        1.20660        0.27250
C         -0.59660        1.01570       -0.01520
N         -0.83880        0.00130       -1.11020
H         -0.90890       -0.00330        1.98290
H         -2.34890       -0.00150        0.93420
H         -1.14050       -1.95830       -0.13880
H          1.05260       -1.55940        1.29510
H          1.32250       -1.96090       -0.40410
H          1.32320        1.96080       -0.39830
H          1.05320        1.55430        1.29970
H         -1.13980        1.95830       -0.13260
H         -1.79890        0.00220       -1.45440
