15
qm7 2210 -1511.16
C          1.60380       -0.12130       -0.09350
C          0.72620       -1.17200        0.58720
O         -0.44440       -1.50390       -0.16200
C         -1.42580       -0.55330       -0.18050
C         -1.33490        0.75100        0.11990
C         -0.08370        1.51040        0.42770
O          0.96640        1.10740       -0.43890
H          2.00110       -0.53100       -1.02820
H          2.45930        0.11190        0.54940
H          1.30790       -2.09510        0.69340
H          0.44280       -0.87500        1.60520
H         -2.35860       -1.00520       -0.49920
H         -2.24320        1.34620        0.07130
H          0.20330        1.44050        1.48250
H         -0.26660        2.56990        0.21660
