13
qm7 6490 -1375.77
C          0.86080        0.04340       -0.00320
C          2.35060        0.03100       -0.00430
C          3.23060        1.08800       -0.00200
O          2.80000        2.36220        0.00190
C          4.59040        0.68590       -0.00430
C          4.71040       -0.68720       -0.00850
S          3.18700       -1.46620       -0.00970
H          0.46890        1.06590        0.00910
H          0.46970       -0.47260        0.88000
H          0.46910       -0.45170       -0.89810
H          3.55610        2.97310        0.00300
H          5.44420        1.35150       -0.00310
H          5.61880       -1.27400       -0.01100
