16
qm7 834 -1490.97
C          3.11820        0.58420        2.71150
O          3.95640        1.46650        1.97560
C          3.41310        1.83440        0.69470
C          2.28710        2.85000        0.84380
C          4.56930        2.43350       -0.11670
O          5.60660        1.46300       -0.25710
H          3.64890        0.29200        3.62160
H          2.90230       -0.31810        2.13190
H          2.18890        1.07970        3.00380
H          3.05810        0.92920        0.18630
H          2.60430        3.69830        1.46000
H          1.41860        2.40540        1.33920
H          1.95980        3.22440       -0.13120
H          5.00100        3.30280        0.39040
H          4.24250        2.73210       -1.11710
H          5.75320        1.11870        0.64600
