15
qm7 5489 -1486.42
N          0.91280       -0.01450       -0.37540
C          2.31980        0.03320        0.02070
C          3.29800       -0.81420       -0.73890
C          3.33170        0.68690       -0.89010
C          4.38380        1.56380       -0.31750
N          5.22520        1.03310        0.61410
O          4.48180        2.73160       -0.66790
H          0.44750        0.86890       -0.16290
H          0.40850       -0.73150        0.14590
H          2.48370        0.13520        1.09150
H          2.93290       -1.38700       -1.58580
H          4.07220       -1.32710       -0.18560
H          2.95840        1.06460       -1.83890
H          5.16860        0.08460        0.94770
H          5.93470        1.64360        0.99670
