19
qm7 3133 -1787.98
C          1.75650       -1.76910       -0.78010
C          2.84050       -0.93420       -0.11100
C          2.78970        0.53220       -0.53770
O          1.53850        1.10120       -0.13790
C          3.92280        1.34410        0.10130
O          3.79890        2.70090       -0.34840
C          4.81520        3.52620        0.20710
H          1.84100       -2.81530       -0.46910
H          1.84960       -1.73050       -1.87000
H          0.75670       -1.41740       -0.50680
H          3.82060       -1.36010       -0.35680
H          2.70890       -1.01090        0.97510
H          2.84450        0.61750       -1.62940
H          1.64200        2.06260       -0.28310
H          4.89880        0.94440       -0.19520
H          3.83200        1.32860        1.19360
H          4.66960        4.54560       -0.16020
H          5.80400        3.17870       -0.10740
H          4.74750        3.53510        1.29920
