11
qm7 206 -1123.32
C          1.78760       -0.73920       -0.78650
C          2.65770       -0.21470        0.08630
C          3.18320        1.18750        0.01930
C          4.69700        1.23130       -0.05020
O          5.45160        0.33250        0.31080
H          1.45550       -1.76840       -0.68390
H          1.39000       -0.16710       -1.61880
H          3.02880       -0.83770        0.89990
H          2.87100        1.75280        0.90370
H          2.80060        1.70600       -0.86630
H          5.11280        2.19330       -0.39730
