18
qm7 4377 -1750.9
C          1.06340       -0.28220       -0.09680
C          2.57350       -0.11920       -0.01980
C          2.97460        1.35670        0.02810
C          4.49070        1.55180        0.02530
N          5.12270        1.02950        1.21840
C          5.20290        1.75720        2.37710
O          4.79790        2.89850        2.53630
H          0.79760       -1.34380       -0.12490
H          0.66310        0.19140       -0.99920
H          0.57460        0.16770        0.77350
H          3.03070       -0.60160       -0.89110
H          2.94150       -0.64030        0.87100
H          2.53760        1.82720        0.91740
H          2.55710        1.87190       -0.84570
H          4.71940        2.62080       -0.05190
H          4.94490        1.04700       -0.83400
H          5.44210        0.06970        1.22430
H          5.68970        1.18580        3.18450
