12
qm7 4075 -1261.81
C          0.93970        0.01880       -0.00810
C          2.41250        0.04440       -0.00040
C          3.28660        1.04660        0.00270
O          4.61830        0.70510        0.01060
N          4.55760       -0.70450        0.01970
C          3.26300       -1.14700        0.00430
O          2.87300       -2.29870       -0.00500
H          0.52450        1.03170       -0.00470
H          0.55900       -0.50410        0.87490
H          0.56810       -0.49470       -0.90030
H          3.09370        2.10580        0.00040
H          5.39550       -1.26490        0.00660
