14
qm7 5702 -1412.17
N          1.01620       -0.01990        0.05040
C          2.47000        0.00000        0.00000
C          2.95200        1.36120        0.00000
C          3.34930        2.48310        0.00000
C          3.86840        3.81470        0.04180
C          3.83750        4.66810       -1.19620
O          2.86950        4.82540       -0.15160
H          0.68970       -0.97580       -0.06840
H          0.65040        0.51200       -0.73790
H          2.80820       -0.52340       -0.90070
H          2.86470       -0.54710        0.86210
H          4.64030        4.01730        0.77510
H          3.49970        4.23380       -2.12800
H          4.58920        5.43940       -1.30160
