12
qm7 672 -1242.64
C          1.00000        0.00000        0.00000
C          2.19020        0.00000        0.00000
C          3.63420        0.00000        0.00000
C          4.01260        1.44330        0.06660
C          4.22590        2.14780        1.38240
O          5.32830        1.68110        0.59110
H         -0.06590       -0.00180       -0.00030
H          4.03320       -0.44820       -0.91540
H          4.03080       -0.56290        0.85160
H          3.71660        2.01760       -0.80220
H          4.00750        1.61890        2.30140
H          4.05680        3.21620        1.42340
