15
qm7 320 -1471.88
C          1.45500        0.45410       -1.34000
C          2.27950       -0.11330       -0.45050
C          3.15460        0.64040        0.51190
C          4.62220        0.38210        0.31890
C          5.54420        0.27600        1.50730
N          5.19270       -0.90440        0.72470
H          0.84920       -0.16070       -1.99940
H          1.36270        1.53140       -1.43170
H          2.33450       -1.19920       -0.39310
H          2.84780        0.37030        1.53020
H          2.98350        1.72010        0.41750
H          5.00540        0.81510       -0.59810
H          5.12490        0.31640        2.50510
H          6.56070        0.63500        1.41330
H          5.95170       -1.17080        0.09420
