19
qm7 1479 -1783.05
C          1.01070        0.53970        0.45510
C          2.50490        0.57460        0.73480
N          3.17180        1.45740       -0.22130
C          4.62520        1.50180       -0.01930
C          5.51610        0.66220       -0.89020
C          5.49070        2.14970       -1.07570
N          6.64960        2.95250       -0.68350
H          0.50650       -0.10340        1.18320
H          0.80520        0.14380       -0.54480
H          0.56880        1.53910        0.52670
H          2.90880       -0.44150        0.65960
H          2.67160        0.93020        1.75840
H          2.77370        2.39410       -0.15290
H          4.94060        1.64250        1.01240
H          5.05710        0.05510       -1.66250
H          6.38880        0.20800       -0.43900
H          4.98960        2.50800       -1.97320
H          7.11800        2.56080        0.13220
H          6.35650        3.89210       -0.41770
