18
qm7 4304 -1719.6
C          2.99790       -1.21020       -0.48590
C          2.38670        0.01810        0.16950
C          3.35000        1.16930        0.21140
O          4.52680        0.94290        1.01060
C          3.54960        2.03450       -1.00130
C          2.83160        2.59110        0.19670
N          3.49680        3.61970        1.00410
H          2.27240       -2.02950       -0.50960
H          3.88100       -1.55390        0.06270
H          3.30530       -0.99520       -1.51480
H          2.07940       -0.22960        1.19170
H          1.47730        0.29580       -0.37670
H          4.29040        0.84780        1.94890
H          2.96220        1.82940       -1.88850
H          4.55340        2.38180       -1.21710
H          1.75910        2.73500        0.08800
H          4.49140        3.39460        1.07880
H          3.14270        3.60970        1.95890
