17
qm7 1011 -1574.49
C          0.95160       -0.09760       -0.10480
C          2.45560        0.03370        0.11130
N          3.18740       -0.70000       -0.94460
C          2.94130        1.50400        0.11390
C          2.42460        2.31130        1.29440
O          4.37290        1.50570        0.17000
H          0.39390        0.35640        0.71980
H          0.65390       -1.15090       -0.15550
H          0.63680        0.38680       -1.03540
H          2.72870       -0.43410        1.06500
H          2.88960       -0.35880       -1.86040
H          2.90960       -1.68260       -0.91750
H          2.65520        2.00100       -0.82050
H          2.70510        1.84050        2.24320
H          1.33730        2.42400        1.26600
H          2.87300        3.31110        1.29720
H          4.63380        0.70420       -0.33160
