14
qm7 1162 -1458.58
C          0.99970       -0.05390        0.00310
C          2.52000        0.00000        0.00000
C          3.00200        1.36120        0.00000
C          3.39930        2.48310        0.00000
C          3.86870        3.80840        0.00000
C          3.02980        4.84980        0.00000
H          0.65760       -1.09280        0.00270
H          0.58540        0.44200       -0.88040
H          0.58910        0.44000        0.88950
H          2.89560       -0.53280       -0.88080
H          2.89920       -0.53410        0.87840
H          4.94180        3.97420       -0.00000
H          1.95250        4.71470        0.00000
H          3.40950        5.86590        0.00000
