13
qm7 1743 -1490.06
C          1.00000        0.00000        0.00000
C          2.19020        0.00000        0.00000
C          3.59620        0.00000        0.00000
C          4.37590       -1.09210        0.00510
C          5.81720       -0.67730        0.00710
C          5.71250        0.82070        0.00240
C          4.42070        1.18350       -0.00170
H         -0.06490       -0.00030        0.00000
H          4.03280       -2.11540        0.00860
H          6.33480       -1.04080       -0.88550
H          6.33050       -1.03530        0.90460
H          6.55600        1.49410        0.00260
H          4.03890        2.19290       -0.00530
