16
qm7 3860 -1579.89
C         -1.24460       -0.00160        0.98190
C         -0.60880       -1.00870       -0.00100
C          0.89580       -1.21530        0.25270
N          1.67620       -0.00030       -0.09340
C          0.89740        1.21320        0.25660
C         -0.60800        1.00820        0.00170
O         -0.82040        0.00180       -1.07270
H         -0.86680       -0.00310        2.00690
H         -2.33900       -0.00100        0.99000
H         -1.18830       -1.92130       -0.16350
H          1.07390       -1.48300        1.30020
H          1.26630       -2.04500       -0.35930
H          1.74240        0.00080       -1.11640
H          1.26760        2.04430       -0.35260
H          1.07490        1.47750        1.30470
H         -1.18710        1.92210       -0.15760
