14
qm7 6654 -1440.43
N          2.12580       -0.47180       -1.34170
C          2.46700       -0.08610        0.01920
C          2.93220        1.33440        0.00210
C          2.10210        2.43610       -0.10910
S          2.95340        3.91870       -0.08640
C          4.45300        3.11550        0.06910
C          4.30420        1.74680        0.10400
H          1.91580       -1.46690       -1.36440
H          2.93890       -0.33360       -1.93930
H          3.25120       -0.74520        0.40890
H          1.59020       -0.19180        0.66770
H          1.02550        2.43580       -0.21150
H          5.37010        3.68430        0.12670
H          5.14250        1.06680        0.19880
