14
qm7 7139 -1499.52
C          0.99200       -0.00910        0.08900
C          2.52000        0.00000        0.00000
C          2.97860       -0.74980       -1.25940
C          4.42390       -1.03640       -1.23890
C          5.60240       -1.26690       -1.22480
C          3.00200        1.36120        0.00000
N          3.38620        2.44620        0.00000
H          0.64780        0.51330        0.98900
H          0.60990       -1.03480        0.13210
H          0.53610        0.48640       -0.77620
H          2.90690       -0.51780        0.88750
H          2.73060       -0.17850       -2.16310
H          2.44370       -1.70510       -1.33390
H          6.65020       -1.46430       -1.21510
