16
qm7 4315 -1566.16
C          0.97190        0.03280       -0.24330
C          2.44810       -0.03470       -0.02360
C          3.14230       -1.17820        0.08980
C          3.21160        1.25100        0.03440
C          2.69650        2.32510        0.96910
N          4.26990        1.40370       -0.71160
O          4.84350        2.66870       -0.54050
H          0.73760        0.71400       -1.06840
H          0.45790        0.38570        0.65600
H          0.55720       -0.94810       -0.49990
H          2.65240       -2.14440        0.03730
H          4.21960       -1.17580        0.22700
H          1.89900        1.94820        1.61380
H          2.31170        3.16270        0.38080
H          3.50790        2.67580        1.61390
H          5.60350        2.63440       -1.15030
