12
qm7 1866 -1248.43
C          1.47480       -0.44540       -0.32690
N          2.72240       -0.24740       -0.06170
N          3.05020        1.09490       -0.20800
C          4.28470        1.29730        0.12370
C          4.88710        2.66450        0.03850
C          5.36430        3.07520        1.35630
N          5.76330        3.40300        2.39760
H          1.05420       -1.46020       -0.25690
H          0.78650        0.36310       -0.62700
H          4.94070        0.47360        0.46160
H          4.14920        3.37480       -0.34750
H          5.72150        2.61860       -0.66850
