15
qm7 1985 -1551.59
N          2.12800       -0.44390       -1.29810
C          2.53540       -0.03210        0.03360
C          2.94390        1.39570        0.00960
C          2.19140        2.54610       -0.13820
C          3.07250        3.65100       -0.07750
C          4.34080        3.15160        0.10530
N          4.25500        1.78510        0.15530
H          1.97840       -1.44940       -1.31150
H          2.87790       -0.24440       -1.95640
H          3.35920       -0.66670        0.37940
H          1.70150       -0.16910        0.73030
H          1.11860        2.57650       -0.28120
H          2.80830        4.69720       -0.16110
H          5.29710        3.65030        0.20140
H          5.03990        1.15900        0.27930
