12
qm7 5853 -1320.33
N          1.30180       -0.14890       -0.84820
C          2.53330       -0.14640       -0.27400
O          3.00590       -1.14460        0.25050
C          3.22610        1.15600       -0.34690
C          4.44830        1.28310        0.18480
C          5.14820        2.51850        0.13560
C          5.74370        3.55890        0.09690
H          0.88020        0.65460       -1.28960
H          0.78230       -1.01690       -0.82650
H          2.72640        1.98400       -0.83200
H          4.93750        0.44120        0.66930
H          6.27600        4.48110        0.06500
