13
qm7 982 -1315.79
C          0.72580        0.10510       -0.05730
C          2.17960       -0.09190        0.22450
C          3.10190        0.86440        0.06470
N          4.42250        0.64070        0.33460
C          5.42250        1.56460        0.19640
O          6.59620        1.32600        0.44880
H          0.39650       -0.60020       -0.82650
H          0.50440        1.11880       -0.40670
H          0.14230       -0.07790        0.85010
H          2.46750       -1.08080        0.57740
H          2.83210        1.85870       -0.28760
H          4.72570       -0.26840        0.66530
H          5.07990        2.54850       -0.16380
