19
qm7 3179 -1867.81
C          2.32560       -0.75590        1.29670
C          2.48440       -0.00900       -0.00640
O          2.05710       -0.50630       -1.05090
C          3.21470        1.34780        0.00870
C          2.93030        2.09610       -1.30500
C          2.73310        2.21590        1.17830
C          4.72280        1.09420        0.12480
H          3.28620       -0.83940        1.80870
H          1.96030       -1.76710        1.09290
H          1.59760       -0.24620        1.93190
H          3.28720        1.53050       -2.17350
H          3.42450        3.07400       -1.32160
H          1.85500        2.26050       -1.44070
H          2.99760        1.77600        2.14610
H          1.64380        2.33520        1.15820
H          3.18260        3.21480        1.14230
H          4.97910        0.60930        1.07290
H          5.28800        2.03120        0.06940
H          5.07590        0.43910       -0.68000
