15
qm7 1012 -1449.59
C          2.28630       -0.01670        1.74540
C          2.45650        0.18820        0.24840
N          3.02930        1.49020       -0.07000
C          2.14540        2.63690       -0.14350
C          4.40160        1.64840       -0.08190
O          5.22600        0.76360        0.10540
H          1.87040       -1.00850        1.94780
H          1.60970        0.72990        2.17300
H          3.24580        0.06500        2.26660
H          1.49330        0.09540       -0.26530
H          3.11480       -0.59450       -0.14570
H          1.36740        2.44000       -0.88620
H          2.69490        3.53770       -0.43070
H          1.68780        2.79970        0.83610
H          4.71200        2.68420       -0.29810
