16
qm7 217 -1602.28
C          0.94950        0.00580        0.02270
C          2.47030        0.00980        0.02270
C          3.02740        1.43280        0.00000
C          4.47140        1.43280        0.00000
C          5.66170        1.43280        0.00000
C          7.10580        1.43280        0.00000
H          0.57280       -1.02230        0.03910
H          0.55540        0.49720       -0.87280
H          0.55530        0.52550        0.90210
H          2.83080       -0.54980       -0.84890
H          2.83080       -0.52170        0.91180
H          2.65570        1.98570        0.87080
H          2.65570        1.95770       -0.88800
H          7.49950        2.45360       -0.01170
H          7.49950        0.91220       -0.87820
H          7.49950        0.93250        0.88990
