12
qm7 38 -1107.82
C          0.99230        0.00480        0.00800
C          2.51310       -0.01260       -0.00100
C          3.06470       -0.74220       -1.21600
O          2.99690        1.32780        0.00030
H          0.62250        0.55400        0.88070
H          0.58370       -1.00990        0.03480
H          0.59830        0.51800       -0.87620
H          2.87870       -0.49390        0.91170
H          2.74650       -0.25720       -2.14550
H          2.73620       -1.78580       -1.23560
H          4.15990       -0.72020       -1.20930
H          2.67600        1.76160       -0.80790
