17
qm7 2251 -1713.33
C          1.48550       -0.15100       -0.43730
C          2.84830        0.06910        0.13500
C          3.62700       -1.12120        0.64940
C          4.05690       -0.39510       -0.59710
C          5.05090        0.71250       -0.54590
O          4.35180        1.87200       -0.06400
C          3.17170        1.44240        0.64010
H          1.19240        0.68140       -1.08830
H          0.74700       -0.23120        0.36890
H          1.43510       -1.07100       -1.03270
H          3.19910       -2.11120        0.53500
H          4.21910       -1.00360        1.55040
H          3.95990       -0.86810       -1.56240
H          5.87600        0.48750        0.13790
H          5.46110        0.94230       -1.53310
H          3.38700        1.43800        1.71420
H          2.37810        2.16990        0.44660
