17
qm7 3244 -1651.85
C          0.89490       -0.00460       -0.09700
C          2.41280        0.14640       -0.03790
O          2.97300       -0.54260       -1.15860
C          2.97060        1.55490       -0.04800
C          2.22820        2.67180       -0.15050
C          4.47050        1.64990        0.11200
O          5.11830        1.11240       -1.03120
H          0.40840        0.47330        0.75890
H          0.62280       -1.06600       -0.09930
H          0.48570        0.41850       -1.02140
H          2.76790       -0.36280        0.86580
H          2.59280       -0.12560       -1.95420
H          1.14780        2.65370       -0.25100
H          2.68910        3.65650       -0.14370
H          4.80070        1.09790        0.99810
H          4.80640        2.68570        0.22710
H          4.70160        0.24180       -1.19360
