18
qm7 4193 -1716.2
C          0.96110       -0.01430        0.03410
C          2.47960       -0.03160       -0.02000
O          2.89500       -0.04220       -1.41280
C          3.17740        1.03950        0.87110
C          4.21440       -0.04050        1.25570
C          3.14580       -1.09980        0.91330
N          3.76030       -2.15530        0.10730
H          0.59290        0.00120        1.06560
H          0.54490       -0.90130       -0.45510
H          0.56410        0.87010       -0.47520
H          3.82840        0.23280       -1.40090
H          2.57490        1.39400        1.71560
H          3.58740        1.90660        0.34510
H          5.10420       -0.02880        0.61400
H          4.53970       -0.02020        2.29990
H          2.55230       -1.44250        1.76660
H          3.91680       -1.86630       -0.86180
H          3.15150       -2.96870        0.00910
