18
qm7 1293 -1760.89
C          1.16380       -0.30750       -0.02820
C          2.66080       -0.25520       -0.29290
C          3.27940        1.03910        0.24850
C          4.78960        1.13460       -0.02470
N          5.28160        2.46060        0.34810
C          5.54470        0.13050        0.74110
C          6.16230       -0.68840        1.36780
H          0.73920       -1.23040       -0.43540
H          0.65140        0.53830       -0.49750
H          0.95550       -0.28310        1.04620
H          2.83720       -0.32600       -1.37250
H          3.13040       -1.12930        0.17140
H          3.08110        1.11280        1.32650
H          2.76990        1.88860       -0.22560
H          4.97680        0.99200       -1.09500
H          5.13470        2.59840        1.34700
H          4.72690        3.17190       -0.12230
H          6.71630       -1.41020        1.92320
