17
qm7 6562 -1579.28
C          2.50430       -0.30600       -1.70410
C          2.78250        0.06950       -0.25540
N          3.33550        1.42670       -0.12030
C          2.33530        2.49280       -0.06970
C          4.69980        1.66610       -0.08910
N          5.07490        2.93290        0.23590
S          5.93000        0.58540       -0.41730
H          2.10690       -1.32420       -1.76010
H          3.41230       -0.26050       -2.31270
H          1.76990        0.36830       -2.15540
H          3.46620       -0.66070        0.18810
H          1.85640        0.01890        0.32930
H          1.87560        2.48540        0.92280
H          1.56640        2.30910       -0.82540
H          2.76170        3.47900       -0.26470
H          4.50560        3.46240        0.87880
H          6.07390        3.07670        0.33350
