18
qm7 4041 -1716.69
C          1.04090       -0.05730        0.10530
C          2.52860       -0.03710        0.00660
C          3.24580       -0.64650       -1.16970
O          2.42210       -1.17260       -2.21890
C          3.21070        0.85320       -1.00520
C          4.43820        1.60990       -0.62250
N          5.21480        1.85200       -1.82890
H          0.70460        0.69600        0.82480
H          0.70000       -1.03690        0.45470
H          0.55430        0.15350       -0.85250
H          2.98750       -0.16600        0.98050
H          4.17890       -1.16230       -0.96620
H          2.68410       -0.80500       -3.08100
H          2.57930        1.42780       -1.67510
H          5.04530        1.06240        0.10660
H          4.15290        2.56580       -0.17200
H          5.55690        0.96340       -2.19140
H          6.04370        2.39340       -1.58670
