12
qm7 716 -1268.01
C          1.00100       -0.05420        0.00300
C          2.52000        0.00000        0.00000
C          3.00200        1.36120        0.00000
C          3.39930        2.48310        0.00000
C          3.89680        3.83650        0.00000
O          3.13200        4.78960        0.00000
H          0.65760       -1.09370        0.00220
H          0.58500        0.44200       -0.88070
H          0.58870        0.43930        0.89000
H          2.89560       -0.53280       -0.88080
H          2.89930       -0.53420        0.87840
H          4.99330        3.94060       -0.00000
