16
qm7 1962 -1616.92
N          2.86590       -0.98670       -0.65100
C          2.35830        0.08750        0.18810
C          3.34810        1.20530        0.17140
C          3.44260        2.13560       -1.01050
C          2.87070        2.63470        0.29170
C          3.64490        3.55010        1.07830
C          4.29100        4.31800        1.73780
H          2.21750       -1.77140       -0.61830
H          3.74510       -1.32960       -0.26800
H          2.21780       -0.27080        1.21310
H          1.38260        0.41020       -0.19080
H          4.27320        0.93520        0.66940
H          2.76230        1.97920       -1.84020
H          4.43050        2.46450       -1.31210
H          1.79800        2.80550        0.30950
H          4.86510        5.00000        2.32080
