16
qm7 5113 -1557.29
C          1.74180       -0.93430        0.15160
N          3.10740       -0.76840       -0.35280
C          3.57190        0.61240       -0.11340
C          5.04430        0.73310       -0.48990
C          5.95540       -0.02730        0.44460
O          5.50450       -1.25620        0.78240
O          7.04710        0.39140        0.80590
H          1.41200       -1.96120       -0.02940
H          1.04460       -0.25910       -0.35620
H          1.69510       -0.75660        1.23030
H          3.07980       -0.93080       -1.36550
H          3.44580        0.87370        0.94450
H          2.97960        1.31260       -0.71350
H          5.32880        1.79070       -0.43680
H          5.23000        0.38870       -1.51350
H          4.59730       -1.41890        0.41590
