19
qm7 3138 -1849.57
C          3.06110       -1.18770       -0.44880
C          2.44090        0.08480        0.10820
O          2.00890       -0.15120        1.44360
C          3.41910        1.22290        0.11310
C          3.48950        2.17900       -1.05400
C          2.92160        2.64170        0.26290
C          3.67190        3.61280        1.10830
H          3.39650       -1.04680       -1.48100
H          2.33840       -2.01010       -0.42100
H          3.92220       -1.50250        0.15160
H          1.55110        0.33790       -0.47900
H          2.80320       -0.29180        1.98620
H          4.35210        0.96200        0.60110
H          2.79960        2.04670       -1.88040
H          4.46690        2.54030       -1.35380
H          1.85010        2.80190        0.32540
H          4.75440        3.46230        1.04640
H          3.37270        3.50830        2.15540
H          3.45150        4.63620        0.79050
