17
qm7 4896 -1608.25
C          3.07200       -0.97840       -1.44160
C          2.52310       -0.31340       -0.18540
O          2.65250       -1.20990        0.91670
C          3.19240        1.03800        0.12450
N          4.62900        0.91080        0.31060
C          5.26850        0.56510        1.45630
N          4.75460        0.19300        2.56920
H          2.97880       -0.32120       -2.31180
H          2.52610       -1.90610       -1.64710
H          4.12350       -1.25890       -1.32150
H          1.45010       -0.13990       -0.32430
H          3.60820       -1.32230        1.08890
H          2.74410        1.47920        1.02230
H          3.00760        1.73540       -0.70130
H          5.20150        1.16710       -0.48750
H          6.36650        0.60270        1.35500
H          3.73050        0.20880        2.52050
