20
qm7 6894 -1916.74
C          2.16530       -0.92620       -0.45980
C          1.90130        0.50120       -0.00800
C          3.16440        1.30800        0.04770
C          3.49380        2.30310       -1.03660
C          3.07440        2.79000        0.32960
C          4.05670        3.42500        1.25890
N          3.98890        4.86470        1.06890
H          1.22940       -1.49020       -0.50770
H          2.83610       -1.43840        0.23910
H          2.63290       -0.94570       -1.44870
H          1.44660        0.48200        0.98860
H          1.17280        0.96460       -0.68500
H          3.98130        0.76410        0.51040
H          2.79410        2.43930       -1.85350
H          4.53310        2.40710       -1.32960
H          2.08120        3.21450        0.43910
H          5.07750        3.07260        1.07180
H          3.79840        3.17810        2.29210
H          4.25600        5.08690        0.11070
H          4.67750        5.31290        1.66920
