15
qm7 2469 -1535.24
C          0.97580        0.00360        0.01240
C          2.48760       -0.00510       -0.00720
C          3.11090        1.06380        0.87140
O          4.43160        0.59460        1.17810
C          4.32410       -0.81990        1.43230
C          3.10340       -1.20770        0.64150
O          2.68500       -2.35240        0.52730
H          0.57700       -0.80390       -0.61120
H          0.58630        0.95310       -0.36910
H          0.58470       -0.14590        1.02510
H          2.87940        0.05840       -1.02790
H          2.56790        1.20680        1.81400
H          3.18020        2.02920        0.36120
H          5.22000       -1.32030        1.06210
H          4.16440       -0.98690        2.49990
