16
qm7 4848 -1601.97
C          0.99720       -0.13190        0.06580
C          2.51610       -0.03100       -0.04600
O          2.89650       -0.65230       -1.27960
C          3.05790        1.41370       -0.00100
C          2.48710        2.23570        1.15610
C          4.53240        1.39140        0.11320
N          5.68760        1.41150        0.22200
H          0.64070        0.17780        1.05220
H          0.67010       -1.16370       -0.10480
H          0.50690        0.48350       -0.69630
H          2.96410       -0.62850        0.75750
H          2.37790       -0.26290       -2.00510
H          2.80500        1.91760       -0.94290
H          2.65330        1.73890        2.11900
H          1.41180        2.40050        1.03570
H          2.96130        3.22280        1.20810
