10
qm7 6529 -1145.6
C          0.87020        0.16800        0.00200
C          2.06820        0.08160       -0.00070
C          3.49140       -0.01660       -0.00400
N          4.24830        1.05980       -0.00940
C          5.57960        0.69020       -0.01150
C          5.82090       -0.66620       -0.00760
S          4.33150       -1.51560       -0.00110
H         -0.19130        0.25220        0.00440
H          6.34170        1.46030       -0.01590
H          6.76980       -1.18260       -0.00830
