20
qm7 6004 -1928.1
C          1.04510       -0.02820       -0.02940
C          2.56670        0.00690        0.02270
C          3.07570        1.13500        0.91080
C          4.48670        0.68720        1.22690
C          4.37250       -0.82590        1.33460
N          3.12510       -1.20130        0.65190
C          3.33320       -2.28350       -0.30420
H          0.68780       -0.83840       -0.67310
H          0.65280        0.91370       -0.42730
H          0.61150       -0.17530        0.96670
H          2.97060        0.14640       -0.98930
H          2.49070        1.21700        1.83550
H          3.05680        2.10580        0.40540
H          5.15310        0.95170        0.39680
H          4.87520        1.14740        2.13990
H          5.26850       -1.30690        0.92560
H          4.29060       -1.12210        2.38670
H          2.39070       -2.57100       -0.78190
H          3.71340       -3.17510        0.20620
H          4.04620       -2.00790       -1.09020
