11
qm7 336 -1204.12
C          1.00000        0.00000        0.00000
C          2.19020        0.00000        0.00000
C          3.63420        0.00000        0.00000
C          4.19030        1.42110       -0.00140
C          5.65800        1.40190       -0.00140
N          6.81840        1.38180       -0.00140
H         -0.06630       -0.00510        0.00000
H          4.00550       -0.54510       -0.87700
H          4.00550       -0.54340        0.87810
H          3.83110        1.96910        0.87800
H          3.83110        1.96730       -0.88200
