14
qm7 4344 -1409.25
C          1.00100       -0.05410        0.00300
C          2.52000        0.00000        0.00000
C          3.00200        1.36120        0.00000
C          3.39930        2.48310        0.00000
C          4.09750        3.73560        0.00000
N          3.32590        4.76420        0.00000
O          4.12810        5.91360        0.00000
H          0.65740       -1.09340        0.00190
H          0.58500        0.44250       -0.88060
H          0.58870        0.43930        0.89010
H          2.89560       -0.53270       -0.88090
H          2.89920       -0.53420        0.87840
H          5.19910        3.74920        0.00000
H          3.47060        6.63160        0.00000
