14
qm7 7106 -1518.39
C          1.04780       -0.11770        0.34020
C          2.49860       -0.06290       -0.07550
C          3.07620       -1.17690       -0.56380
C          3.21810        1.21710        0.05130
C          2.74770        2.25780        0.76450
C          4.47120        1.39710       -0.62900
N          5.48440        1.55450       -1.17480
H          0.46500        0.65050       -0.18020
H          0.94610        0.02790        1.42090
H          0.58720       -1.08300        0.10050
H          2.52210       -2.10770       -0.65390
H          4.11360       -1.22040       -0.88400
H          1.81400        2.22550        1.31410
H          3.30190        3.19180        0.82910
