15
qm7 6126 -1421.14
O          2.22600       -0.78590        0.25660
C          1.85790        0.56980        0.03240
C          3.09120        1.39020       -0.11570
C          3.72040        1.58910       -1.46210
N          3.00010        2.68370       -0.80360
N          3.93280        3.48560       -0.24990
C          3.55630        4.71990       -0.24280
H          1.40090       -1.27660        0.41110
H          1.27720        0.91810        0.89260
H          1.22280        0.61100       -0.85910
H          3.73780        1.31610        0.75110
H          3.23400        1.16770       -2.33180
H          4.80040        1.64600       -1.52390
H          4.22220        5.48760        0.18230
H          2.58760        5.07020       -0.64300
