12
qm7 4554 -1329.29
C          2.03650       -1.13330       -0.28790
C          3.17990       -0.44210       -0.20410
C          3.16600        1.03350        0.03920
O          2.10660        1.63590        0.21000
C          4.49370        1.74230        0.14350
C          5.27610        1.58720       -1.08040
N          5.91300        1.43960       -2.03920
H          2.04330       -2.20320       -0.46690
H          1.06740       -0.65050       -0.18460
H          4.13830       -0.93720       -0.31190
H          5.03070        1.34790        1.01250
H          4.30530        2.80480        0.33340
