12
qm7 6466 -1255.56
C          0.96080        0.00780       -0.00810
C          2.43990        0.08810       -0.00100
C          3.21760        1.17920        0.00440
S          4.91710        0.85250        0.01230
N          4.59960       -0.80430        0.00870
C          3.26920       -1.14180        0.00170
O          2.82170       -2.27600       -0.00170
H          0.50590        1.00380       -0.00480
H          0.60030       -0.52840        0.87560
H          0.60860       -0.51890       -0.90080
H          2.84190        2.19410        0.00380
H          5.31450       -1.51850        0.01170
