15
qm7 6883 -1513.4
C          1.10140       -0.03760       -0.09530
C          2.57180        0.17090       -0.10520
N          3.16400        1.27240       -0.46140
N          4.53670        1.14850       -0.38550
C          4.81050       -0.14130        0.26660
C          4.58290       -1.43360       -0.46270
C          3.49360       -0.85570        0.39660
H          0.86960       -1.10350       -0.16040
H          0.64690        0.48350       -0.94170
H          0.68910        0.36360        0.83410
H          4.94010        1.95380        0.09720
H          5.48760       -0.13480        1.11220
H          5.10040       -2.31480       -0.10340
H          4.46650       -1.39700       -1.54000
H          3.26610       -1.32010        1.34630
