16
qm7 297 -1481.86
C          0.98410        0.03740        0.06930
C          2.49640       -0.07040        0.01760
N          3.17380        0.97270        0.84000
C          4.18450       -0.04360        1.23820
C          3.14860       -1.14470        0.92730
N          3.75410       -2.20880        0.12340
H          0.52450       -0.81560       -0.43990
H          0.64100        0.94840       -0.43240
H          0.60740        0.05400        1.09870
H          2.85440       -0.06320       -1.02190
H          2.61490        1.29980        1.62890
H          5.07920       -0.01980        0.60350
H          4.50230        0.02050        2.28360
H          2.55540       -1.47650        1.78580
H          4.33220       -1.87290       -0.64700
H          3.07210       -2.83870       -0.29570
