16
qm7 5336 -1588.48
C          1.04800       -0.26410        0.01250
O          2.44710       -0.03090        0.01580
C          2.89400        1.33860        0.00000
C          2.40710        2.05900       -1.26760
C          2.40710        2.08640        1.25110
C          4.33800        1.33860        0.00000
N          5.48920        1.33860        0.00000
H          0.89000       -1.34650        0.02960
H          0.57990        0.12420       -0.89520
H          0.57000        0.15420        0.90130
H          2.65600        1.48110       -2.16550
H          2.85760        3.05350       -1.36680
H          1.32010        2.19150       -1.26630
H          2.65590        1.52860        2.16200
H          1.31990        2.21890        1.24730
H          2.85750        3.08330        1.32880
