18
qm7 4926 -1704.91
C          1.33620        3.49130        1.28240
C          2.51050        2.56940        1.02190
O          3.62050        3.35810        0.59540
N          4.70020        2.50340        0.34000
C          5.78340        3.17250        0.08480
C          5.87600        4.67850        0.06610
C          7.03120        2.40070       -0.26140
H          0.47120        2.92860        1.64290
H          1.05530        4.02310        0.36780
H          1.59950        4.25120        2.02470
H          2.25330        1.84210        0.24330
H          2.77760        2.03420        1.94050
H          5.26380        5.12240        0.85440
H          5.54260        5.04430       -0.90840
H          6.91210        4.98910        0.22570
H          6.83380        1.32530       -0.26600
H          7.80700        2.61880        0.47800
H          7.38100        2.70500       -1.25150
