15
qm7 6885 -1524.55
C          1.07340       -0.01560        0.09710
C          2.56700       -0.00850        0.04810
N          3.28180       -1.09570       -0.05150
N          4.58990       -0.70460       -0.00410
C          4.75650        0.74650       -0.14520
C          3.36800        1.23640        0.08150
C          2.92540        2.47870        0.29820
H          0.69770       -1.03500       -0.02560
H          0.67300        0.60680       -0.70700
H          0.73510        0.37220        1.06210
H          5.17400       -1.23570       -0.64980
H          5.09030        0.99360       -1.15790
H          5.46750        1.13000        0.59200
H          3.61480        3.31670        0.31770
H          1.87690        2.69320        0.47000
