12
qm7 465 -1257.51
C          0.98830        0.00810       -0.00780
N          2.42800        0.02470       -0.00100
C          3.23230        1.12750        0.00320
C          4.51370        0.62800        0.00920
N          4.50250       -0.74310        0.00860
C          3.23210       -1.07800        0.00240
H          0.61020        1.03350        0.00230
H          0.64370       -0.52380        0.88260
H          0.65230       -0.50330       -0.91340
H          2.84880        2.13820        0.00180
H          5.44360        1.18220        0.01380
H          2.84730       -2.08990        0.00010
