18
qm7 5057 -1706.56
C          1.56460       -0.19290        0.33360
N          2.95860        0.15390        0.58140
C          3.22600        1.59500        0.45520
C          2.43650        2.44540        1.45520
C          4.70360        1.77420        0.69480
C          5.68070        1.87770       -0.44980
O          5.23110        3.03890        0.26120
H          1.46020       -1.28240        0.32740
H          1.21940        0.18150       -0.63580
H          0.90690        0.18210        1.12400
H          3.53650       -0.34330       -0.09590
H          2.97720        1.92290       -0.56360
H          2.61120        2.11590        2.48380
H          1.36200        2.40900        1.25640
H          2.74250        3.49430        1.39090
H          5.04460        1.39070        1.64740
H          5.32510        1.74960       -1.46330
H          6.70100        1.55690       -0.28320
