12
qm7 6162 -1257.54
O          0.86420        0.56850        0.47740
C          2.01790        0.21980        0.22000
C          3.21250        1.16040       -0.06430
N          2.83000        2.56830       -0.33020
C          3.33970        3.07100        0.95830
C          3.80550        1.64210        1.25370
O          4.39800        1.09900        2.16330
H          2.25900       -0.85530        0.15480
H          3.94910        0.75330       -0.76110
H          1.81510        2.68300       -0.42810
H          4.15110        3.79670        0.87200
H          2.57110        3.43540        1.64380
