10
qm7 6681 -1113.93
O          2.64050       -1.17550        0.08840
C          2.14350       -0.05640       -0.00560
C          2.85270        1.19480        0.01590
C          2.37730        2.48720       -0.08270
C          3.45930        3.41200       -0.01100
N          4.67900        2.90180        0.13120
S          4.55030        1.24580        0.18380
H          1.04940        0.03840       -0.11880
H          1.33690        2.76040       -0.19760
H          3.37830        4.49080       -0.06170
