15
qm7 3473 -1538.75
C          1.81020        2.96790        0.69080
O          3.21080        2.74100        0.53540
C          3.53480        1.45390        0.25000
O          2.73830        0.53340        0.12800
C          5.00960        1.27790        0.10620
C          5.46160       -0.13480       -0.11450
C          5.87230        2.30710        0.16490
H          1.66900        4.00370        1.01020
H          1.39110        2.31090        1.45890
H          1.29670        2.82550       -0.26450
H          5.16050       -0.76910        0.72590
H          6.55020       -0.20590       -0.20830
H          5.02350       -0.53980       -1.03260
H          5.54580        3.33120        0.32070
H          6.94070        2.15200        0.05500
