20
qm7 6938 -1908.78
C          1.84210       -0.10540        1.38950
C          1.98260        0.35020       -0.05390
C          3.20770        1.19090       -0.25110
C          3.17590        2.37600       -1.18620
N          3.21600        2.55980        0.26300
C          4.52770        2.95660        0.78150
C          4.46510        4.40320        1.24870
H          0.97580       -0.76550        1.49900
H          1.70350        0.75040        2.05960
H          2.73370       -0.64870        1.72160
H          1.07770        0.89380       -0.34900
H          2.05200       -0.52830       -0.70510
H          4.12230        0.61180       -0.18580
H          2.23950        2.64110       -1.66310
H          4.06010        2.60190       -1.76930
H          5.33730        2.84950        0.04770
H          4.78590        2.32320        1.63960
H          4.21090        5.07700        0.42450
H          5.43620        4.71100        1.65070
H          3.71970        4.52990        2.04050
