18
qm7 4365 -1751.84
C          0.82860       -1.18100        0.06890
C          2.25810       -0.78200       -0.30500
C          2.91760       -1.90260       -1.11010
C          2.29020        0.52770       -1.10670
N          1.78620        1.65750       -0.35160
C          2.57310        2.35860        0.52420
O          3.75610        2.14940        0.74860
H          0.36450       -0.42910        0.71530
H          0.82070       -2.13160        0.61310
H          0.20230       -1.29640       -0.82220
H          2.82680       -0.65040        0.62440
H          2.38960       -2.07810       -2.05380
H          2.92020       -2.84050       -0.54420
H          3.95770       -1.65250       -1.34510
H          1.67820        0.44700       -2.01150
H          3.31730        0.75320       -1.41520
H          0.80320        1.88750       -0.41080
H          2.01100        3.16160        1.02620
