14
qm7 6489 -1445.57
C          0.85020        0.01350       -0.00390
C          2.34100        0.02940       -0.00430
C          3.22020        1.09120       -0.00580
N          2.85910        2.38650       -0.00650
C          4.57890        0.67820       -0.00770
C          4.70090       -0.69330       -0.00700
S          3.17980       -1.47040       -0.00430
H          0.43100        1.02430        0.00850
H          0.46900       -0.51170        0.87890
H          0.46920       -0.49040       -0.89910
H          3.53650        3.14190        0.01870
H          1.89360        2.69430        0.02320
H          5.43150        1.34450       -0.01010
H          5.61140       -1.27730       -0.00820
