14
qm7 4169 -1431.8
C          1.03040        0.01620       -0.14270
C          2.51270        0.01890        0.13000
N          3.11190        1.16740        0.22510
O          4.48390        1.07840        0.57320
C          5.20000        0.05050       -0.12190
C          4.50890       -1.26250        0.04900
C          3.18670       -1.29850        0.24070
H          0.63900       -1.00100       -0.22720
H          0.83330        0.54910       -1.07740
H          0.51340        0.52710        0.67500
H          6.19830        0.00070        0.32310
H          5.30610        0.31530       -1.17880
H          5.09850       -2.17120        0.03050
H          2.61440       -2.20520        0.37180
