15
qm7 5464 -1408.57
C          2.39970        0.63130        0.67550
O          3.03220        1.86870        0.37330
N          4.27680        1.90020        1.02130
C          4.85320        3.02850        0.76220
N          6.08920        3.49920        1.18020
C          6.53270        3.08790        2.52210
C          7.16450        2.50220        1.30680
H          1.44580        0.59110        0.14310
H          2.20770        0.55800        1.75040
H          3.02300       -0.20580        0.34530
H          4.35980        3.78340        0.12370
H          5.82520        2.49710        3.08790
H          7.04970        3.87560        3.05120
H          8.12390        2.87940        0.98370
H          6.90520        1.49530        1.00830
