21
qm7 3387 -2066.04
C          0.98270        0.01850       -0.01570
C          2.50050        0.01470        0.04570
C          3.06930        1.12420        0.92450
C          4.49800        0.65880        1.15740
C          4.35950       -0.84840        1.39110
C          5.59080       -1.62270        0.94330
C          3.08030       -1.27040        0.64820
H          0.61970       -0.80580       -0.63800
H          0.61670        0.95610       -0.44660
H          0.54070       -0.08980        0.98050
H          2.89450        0.13240       -0.97260
H          2.53050        1.19230        1.87730
H          3.03010        2.10250        0.43630
H          5.10750        0.86680        0.26930
H          4.96110        1.16570        2.00900
H          4.21080       -1.02740        2.46430
H          5.77760       -1.49050       -0.12650
H          5.46380       -2.69340        1.13480
H          6.47870       -1.28420        1.48740
H          3.26810       -2.01440       -0.13390
H          2.38110       -1.72320        1.36150
