11
qm7 1146 -1151.19
C          0.94570        0.01940       -0.00560
C          2.43320        0.03470       -0.00150
N          3.06700        1.20820        0.00100
S          4.70220        0.94250        0.00510
C          4.60370       -0.76370        0.00320
C          3.27350       -1.12580       -0.00050
H          0.52950        1.03160        0.00410
H          0.57000       -0.50980        0.87580
H          0.57490       -0.49120       -0.89980
H          5.48440       -1.38940        0.00500
H          2.92150       -2.14910       -0.00240
