15
qm7 3332 -1510.72
C          1.01170        0.13870       -0.14600
O          2.43080        0.03930       -0.16930
C          3.10590        1.22680       -0.10530
C          4.42310        1.33720       -0.24720
C          4.81990        2.75560       -0.11010
O          3.60530        3.49120        0.13450
C          2.50160        2.56140        0.14460
H          0.60100       -0.87240       -0.22370
H          0.64620        0.71920       -0.99920
H          0.66420        0.57320        0.79680
H          5.10270        0.52120       -0.43150
H          5.49820        2.90890        0.73420
H          5.28350        3.13870       -1.02380
H          1.80020        2.85810       -0.64030
H          2.01370        2.62080        1.12160
