15
qm7 1780 -1524.15
C          0.92900       -0.10470       -0.06190
N          2.38200       -0.05010       -0.15810
C          2.86570        1.31470        0.01060
C          4.36080        1.30950       -0.03660
C          5.08870        2.01590       -0.91540
C          6.50890        1.98340       -0.92340
N          7.66880        1.96590       -0.93920
H          0.59470       -1.13970       -0.18320
H          0.45260        0.49660       -0.84310
H          0.58260        0.24050        0.91760
H          2.66510       -0.39690       -1.07420
H          2.55660        1.71000        0.98550
H          2.45000        1.96940       -0.76470
H          4.85860        0.68960        0.70860
H          4.61110        2.64090       -1.66170
