14
qm7 2047 -1459.37
N          1.00540        0.02370        0.09650
C          2.47000        0.00000        0.00000
C          2.90770       -0.76490       -1.26630
C          4.35400       -1.06200       -1.27070
C          5.53040       -1.30540       -1.27980
C          2.95200        1.36120        0.00000
C          3.34930        2.48310        0.00000
H          0.74480        0.54330        0.93390
H          0.66400       -0.92550        0.23290
H          2.85390       -0.52090        0.88630
H          2.64670       -0.19970       -2.17050
H          2.36780       -1.71930       -1.32370
H          6.57450       -1.51700       -1.29120
H          3.70210        3.48830       -0.00620
