15
qm7 3505 -1574.49
O          1.44010        0.11330        1.23040
C          2.62640        0.07230        0.42020
C          2.55780        0.80210       -0.89620
C          3.80930        1.21120       -1.64560
C          4.47090       -0.08710       -2.03430
C          3.74300       -1.12150       -1.57940
C          2.52720       -0.71620       -0.85810
H          0.64850        0.34220        0.71470
H          3.57430        0.05920        0.94980
H          1.66860        1.34600       -1.17600
H          4.46640        1.81200       -1.00980
H          3.55090        1.78550       -2.54070
H          5.39600       -0.16120       -2.58610
H          4.00940       -2.16160       -1.72040
H          1.60710       -1.22570       -1.10850
