13
qm7 5723 -1277
N          1.01630       -0.01780        0.03680
C          2.47000        0.00000        0.00000
C          2.95200        1.36120        0.00000
C          3.34930        2.48310        0.00000
C          4.06880        3.72450        0.01440
N          3.32130        4.76780       -0.03710
O          4.14950        5.90030       -0.01580
H          0.68980       -0.97560       -0.06740
H          0.65760        0.49850       -0.76510
H          2.81680       -0.52750       -0.89490
H          2.85600       -0.54340        0.86840
H          5.17000        3.71510        0.06420
H          3.50440        6.63160       -0.03530
