21
qm7 2897 -1986.54
C          7.76730        0.29900        2.27220
C          6.67350        1.23280        1.78020
C          5.38010        0.47660        1.48840
C          4.27330        1.41600        1.02440
O          3.11250        0.63630        0.74070
C          2.01420        1.45380        0.34040
C          0.84620        0.55180       -0.00850
H          8.68700        0.86050        2.46340
H          7.98900       -0.47330        1.52870
H          7.47150       -0.19480        3.20350
H          7.01740        1.74300        0.87300
H          6.49250        2.00440        2.53740
H          5.04500       -0.06380        2.38280
H          5.55320       -0.28980        0.72250
H          4.58270        1.94910        0.11850
H          4.04330        2.14600        1.80860
H          2.29480        2.05280       -0.53290
H          1.73680        2.12310        1.16180
H          1.11700       -0.13010       -0.82050
H         -0.02130        1.14090       -0.31650
H          0.56760       -0.06780        0.84940
