15
qm7 3616 -1520.18
O          0.94740       -0.07080        0.01020
C          2.35890       -0.03200        0.20220
C          3.00020        1.24530       -0.37880
O          3.07950        1.16750       -1.80810
C          3.97340        0.12770       -2.23000
C          3.68310       -1.17600       -1.54500
C          2.92050       -1.25760       -0.44660
H          0.69660        0.71740       -0.50010
H          2.53470       -0.06280        1.28000
H          2.38830        2.11980       -0.14020
H          4.00450        1.40710        0.02800
H          5.00860        0.43790       -2.03580
H          3.85440        0.01260       -3.31290
H          4.10450       -2.07500       -1.98720
H          2.69630       -2.22150       -0.00020
