14
qm7 5307 -1368.11
C          0.92100        0.23510       -0.20370
O          2.34760        0.20720       -0.31470
C          3.04430        1.33350       -0.14250
N          4.33510        1.33450       -0.14580
O          4.73390        2.67550        0.08220
C          3.60010        3.50390       -0.19200
C          2.40100        2.63990        0.10230
H          0.56100       -0.79720       -0.23080
H          0.48920        0.77520       -1.05090
H          0.61280        0.68240        0.74590
H          3.63840        3.80490       -1.24490
H          3.63230        4.39960        0.43460
H          1.56410        2.86140       -0.56070
H          2.09950        2.70340        1.15150
