18
qm7 6924 -1789.99
C          0.99290       -0.05530        0.26300
C          2.37160        0.12420       -0.28390
C          3.15930        1.19730       -0.10370
C          2.80950        2.47720        0.58770
C          3.56210        3.47530       -0.27710
N          4.82250        2.80650       -0.61960
C          4.51430        1.37240       -0.72470
H          0.88390       -1.06940        0.66120
H          0.25460        0.08010       -0.53360
H          0.76600        0.64160        1.07430
H          2.74910       -0.70590       -0.87880
H          3.19990        2.47130        1.61160
H          1.73900        2.69670        0.60550
H          2.99500        3.69800       -1.19050
H          3.74470        4.41670        0.24930
H          5.16790        3.15230       -1.51280
H          4.51280        1.05650       -1.77340
H          5.27250        0.80420       -0.17690
