17
qm7 2561 -1723.12
C          1.01350       -0.01360       -0.04180
C          2.52820       -0.01610        0.09170
O          2.93600       -1.19820        0.81080
C          3.30830       -0.80730        2.14850
C          4.56380       -1.55760        2.55300
C          3.48990        0.66780        2.07750
C          3.03700        1.11950        0.90760
H          0.68590       -0.87710       -0.63080
H          0.65350        0.89820       -0.52820
H          0.52640       -0.10410        0.93630
H          3.00310       -0.03660       -0.89440
H          2.48230       -1.05970        2.82280
H          5.39440       -1.34470        1.87080
H          4.39080       -2.63840        2.50910
H          4.87200       -1.29540        3.57010
H          3.89530        1.27600        2.87180
H          3.02380        2.15150        0.59320
