15
qm7 2434 -1542.04
C          0.88470       -0.02070        0.16840
C          2.39390       -0.00490       -0.04370
C          3.14230        1.02270        0.82820
O          3.78580       -0.01710        1.60100
C          3.15970       -1.04460        0.79810
C          2.74100        0.01860       -1.45740
C          3.03090        0.03800       -2.62150
H          0.62810       -0.03850        1.23380
H          0.42990       -0.90470       -0.29320
H          0.41500        0.86890       -0.26710
H          2.51790        1.65660        1.46660
H          3.88070        1.65160        0.31930
H          3.90840       -1.64580        0.27140
H          2.54630       -1.70720        1.41760
H          3.29300        0.05530       -3.65550
