21
qm7 1550 -1929.11
C          1.95820        0.36410       -1.77540
C          3.29280        0.20890       -1.05850
N          3.92910        1.51780       -0.91440
C          5.16390        1.47730       -0.10310
C          6.25960        0.60710       -0.72320
C          5.70820        2.91840        0.09560
N          4.67970        3.85660        0.56960
H          1.48330       -0.61370       -1.90130
H          2.09300        0.80370       -2.76900
H          1.27320        1.00150       -1.20680
H          3.92060       -0.46530       -1.64980
H          3.12090       -0.24980       -0.07760
H          3.28250        2.13550       -0.41840
H          4.91790        1.07750        0.89040
H          6.47340        0.90900       -1.75430
H          5.98020       -0.45130       -0.72700
H          7.18990        0.69020       -0.14970
H          6.11620        3.30280       -0.84780
H          6.52900        2.90070        0.82260
H          4.03200        4.01660       -0.20230
H          5.11990        4.75980        0.73920
