11
qm7 1072 -1097.08
C          1.40770       -0.23520       -0.59620
O          2.79200       -0.20490       -0.26700
N          3.21940        1.13210       -0.28000
C          4.46930        1.16450        0.01690
C          4.99690        2.49880        0.02810
C          5.44360        3.61400        0.03880
H          1.07290       -1.27570       -0.58660
H          1.24710        0.17820       -1.59660
H          0.83010        0.32840        0.14300
H          5.11220        0.30090        0.24550
H          5.82890        4.60690        0.04550
