13
qm7 5557 -1350.16
N          0.98620        0.02840       -0.06990
C          2.32520       -0.01900       -0.03270
C          3.14860        1.07910       -0.02220
N          4.44720        0.62630        0.01720
C          4.45790       -0.74620        0.03300
C          3.15160       -1.15920        0.00070
O          2.79240       -2.44920       -0.00850
H          0.49730        0.91200        0.03910
H          0.40190       -0.77530        0.12500
H          2.93850        2.13860       -0.04010
H          5.27060        1.21460        0.02890
H          5.38490       -1.30150        0.05800
H          1.82760       -2.49710       -0.10100
