19
qm7 1496 -1778.36
C          1.34060        0.55390        0.46640
C          2.75140        0.43140       -0.08810
N          3.49580        1.66380        0.16930
C          4.83740        1.58620       -0.41080
C          5.51930        2.90420       -0.19310
C          6.43960        3.11810        0.98150
N          6.97190        2.99590       -0.37220
H          0.78030       -0.36740        0.27590
H          0.79980        1.38010       -0.00820
H          1.35000        0.72530        1.54820
H          2.68980        0.24050       -1.16560
H          3.25120       -0.42340        0.38160
H          3.57770        1.80390        1.17560
H          4.77260        1.40230       -1.48930
H          5.40660        0.76600        0.04360
H          4.94440        3.74130       -0.57270
H          6.64860        2.28750        1.64360
H          6.48450        4.10030        1.43400
H          7.22430        3.91090       -0.75140
