16
qm7 4678 -1609.38
C          0.95710       -0.00510        0.23690
C          2.42230       -0.21170       -0.08400
N          2.76690       -1.50160       -0.43710
C          3.24860        0.84760       -0.02340
C          4.72030        0.88720       -0.23060
C          5.56010       -0.33640        0.02590
O          5.23350        1.94840       -0.58780
H          0.73040        1.02730        0.52430
H          0.65850       -0.65330        1.06800
H          0.34040       -0.25110       -0.63400
H          1.97360       -2.07310       -0.72490
H          3.52480       -1.56350       -1.11230
H          2.85090        1.83330        0.20630
H          5.13810       -0.94230        0.83080
H          6.55650       -0.01880        0.35000
H          5.65430       -0.92200       -0.89070
