14
qm7 6361 -1428.21
O          0.58770        1.26600        0.15020
N          1.81300        0.61190       -0.02630
C          2.76980        1.47110        0.11140
C          4.18530        1.07690       -0.02150
C          5.14590        1.99830        0.11920
C          6.55020        1.68060       -0.00120
C          7.51750        2.59530        0.13020
H         -0.05410        0.54240        0.02400
H          2.56790        2.53470        0.33340
H          4.38280        0.03260       -0.23470
H          4.88950        3.03480        0.33150
H          6.82480        0.64810       -0.20870
H          7.30580        3.63980        0.33660
H          8.56100        2.31070        0.03090
