11
qm7 1114 -1194.72
O          1.16690       -0.07740       -0.44820
C          2.33270       -0.02610       -0.11230
N          3.16480       -1.08060        0.16220
C          4.47980       -0.66750        0.52980
C          4.34440        0.81160        0.44340
C          3.11770        1.20010        0.07590
H          2.83710       -2.03440        0.09770
H          5.20320       -1.06590       -0.18540
H          4.70290       -1.01090        1.54260
H          5.15690        1.49060        0.65710
H          2.72660        2.19050       -0.06890
