19
qm7 2613 -1849.16
C          1.91150       -0.51880       -1.27920
C          2.42480        0.07580        0.02230
C          3.36100        1.24200       -0.25610
C          2.73560        2.56220       -0.73020
C          3.36140        3.16250        0.53190
C          4.54660        4.08650        0.33480
O          3.79350        1.85620        0.98570
H          1.25700       -1.37180       -1.07580
H          2.74030       -0.86440       -1.90540
H          1.34250        0.21850       -1.85390
H          2.95900       -0.69990        0.58290
H          1.57720        0.39540        0.63990
H          4.23810        0.94170       -0.84310
H          1.64190        2.58900       -0.74370
H          3.12180        2.93730       -1.68190
H          2.62190        3.58370        1.22270
H          5.30760        3.63620       -0.31140
H          5.01550        4.32220        1.29570
H          4.22780        5.02850       -0.12320
