14
qm7 4857 -1451.64
C          0.95110       -0.07730       -1.15530
C          1.96100       -0.19310       -0.02830
O          1.61980        0.77150        0.97130
C          2.44630        0.82010        2.08700
C          2.18220        1.74410        3.02000
C          3.55100       -0.07630        2.26380
N          4.44250       -0.80750        2.39420
H          1.16970       -0.79590       -1.95010
H          0.95990        0.93240       -1.57890
H         -0.06310       -0.25830       -0.78400
H          2.96470        0.00780       -0.42050
H          1.91830       -1.20480        0.39140
H          1.34790        2.42710        2.89670
H          2.78220        1.84310        3.91940
