15
qm7 6793 -1558.05
C          0.95730        0.05610       -0.00770
N          2.39480       -0.02470       -0.00090
C          3.26170        1.02630        0.00310
N          4.50990        0.61580        0.00920
C          4.44540       -0.75900        0.00910
C          5.68340       -1.56790        0.01500
C          3.13160       -1.17550        0.00280
H          0.64800        1.10440        0.00280
H          0.57790       -0.45230        0.88230
H          0.58790       -0.43170       -0.91330
H          2.94150        2.06000        0.00140
H          5.45850       -2.63900        0.02340
H          6.28350       -1.33800        0.90080
H          6.28290       -1.35160       -0.87450
H          2.68220       -2.15810        0.00070
