19
qm7 3017 -1785.66
C          0.42170        0.24150       -0.33900
C          1.77980        0.01860        0.30730
C          2.59630        1.30290        0.50540
C          1.85760        2.34250        1.36270
O          2.69790        3.48370        1.55300
O          3.82490        1.01590        1.20660
C          4.82220        0.41900        0.38630
H         -0.04300       -0.72130       -0.57660
H          0.51590        0.81140       -1.26820
H         -0.25730        0.77560        0.33160
H          2.34590       -0.67810       -0.32210
H          1.65220       -0.49360        1.26950
H          2.84340        1.76110       -0.45990
H          1.62150        1.94220        2.35380
H          0.93560        2.68570        0.88710
H          3.56310        3.11250        1.81700
H          5.73630        0.32560        0.97890
H          5.03640        1.04900       -0.48250
H          4.52170       -0.58080        0.06640
