17
qm7 4497 -1629.72
C          0.93750        0.02080       -0.04100
C          2.46790        0.00560       -0.08850
C          2.99360       -0.79650       -1.28910
N          2.63200       -2.21530       -1.21160
C          3.01140        1.42860       -0.14720
N          2.72340        2.21150        0.93260
O          3.68810        1.87630       -1.06670
H          0.57050        0.55560        0.84050
H          0.52780       -0.99260        0.00220
H          0.52290        0.52130       -0.92290
H          2.85040       -0.44680        0.83640
H          4.08580       -0.72080       -1.34860
H          2.59370       -0.38350       -2.22280
H          3.11120       -2.64520       -0.42080
H          2.98590       -2.68960       -2.04300
H          2.20320        1.88470        1.73470
H          3.07790        3.15900        0.93360
