15
qm7 5413 -1471.31
C          1.08430        0.08160       -0.56210
O          2.49170        0.23180       -0.34130
C          3.00810        1.43350        0.00960
N          2.30390        2.49730        0.17860
N          4.35770        1.33940        0.15270
C          5.25230        2.31630        0.49380
C          6.57450        2.18250        0.62790
H          0.89890       -0.95530       -0.85590
H          0.75360        0.73550       -1.37450
H          0.53220        0.28480        0.36030
H          1.31600        2.32520        0.01860
H          4.74080        0.41960       -0.01720
H          4.78280        3.28530        0.66210
H          7.07460        1.23420        0.46870
H          7.18620        3.03540        0.90430
