20
qm7 1483 -1917.88
C          2.61220       -1.45570       -0.35170
C          2.01080       -0.09490       -0.01190
N          1.06800       -0.20020        1.09870
C          3.06350        0.95410        0.33050
C          4.06240        0.59370        1.40660
C          3.56880        1.83160       -0.80020
C          2.65030        2.41160        0.23490
H          3.35110       -1.36260       -1.15500
H          1.83520       -2.15130       -0.68760
H          3.11340       -1.91130        0.50940
H          1.44220        0.24290       -0.88750
H          1.54130       -0.58570        1.91280
H          0.34040       -0.87050        0.85750
H          4.72290        1.43570        1.64210
H          4.69890       -0.23520        1.08240
H          3.55960        0.30600        2.33440
H          3.17250        1.68150       -1.79840
H          4.60580        2.14870       -0.79040
H          3.06130        3.11610        0.94910
H          1.62830        2.63650       -0.05210
