13
qm7 3559 -1409.62
O          1.16970       -0.04810        0.51490
C          2.31990        0.01640        0.13160
C          3.17140        1.24650        0.04590
C          4.30460        0.79060       -0.87440
C          4.53860       -0.69580       -0.60180
C          3.16080       -1.17680       -0.26020
O          2.77950       -2.32870       -0.22580
H          3.54330        1.49380        1.04430
H          2.61730        2.08520       -0.38080
H          3.99840        0.92380       -1.91970
H          5.21410        1.38030       -0.72240
H          4.93260       -1.21000       -1.48100
H          5.19330       -0.84470        0.26160
