11
qm7 4746 -1212.86
C          1.11930       -0.24180        0.03250
C          2.45320       -0.19090        0.04000
N          3.13380        0.99660       -0.00980
C          4.51900        1.08940       -0.00390
O          5.28450        0.13170        0.04590
C          5.05270        2.44580       -0.06250
N          5.41720        3.54980       -0.11080
H          0.61020       -1.20060        0.07310
H          0.49830        0.64620       -0.01310
H          3.05030       -1.10140        0.08640
H          2.60010        1.85860       -0.05360
