16
qm7 7043 -1628.88
C          1.43790       -0.45380       -0.88130
C          2.60900       -0.19660       -0.28590
C          3.28850        1.06940       -0.40490
C          4.46470        1.33000        0.18930
C          5.19680        2.59230        0.09980
C          4.81550        3.72720        1.01460
N          6.02940        2.95390        1.24320
H          0.96160       -1.42170       -0.76310
H          0.92640        0.28150       -1.49430
H          3.07570       -0.97180        0.31830
H          2.81410        1.84240       -1.00520
H          4.93640        0.55240        0.78840
H          5.60130        2.83210       -0.87810
H          4.01760        3.57900        1.73220
H          4.94210        4.74230        0.66110
H          6.85550        3.46830        0.93490
