15
qm7 4809 -1432.78
C          1.05080        0.45330        0.12620
C          2.32400       -0.37170        0.04320
N          2.20400       -1.75490       -0.01320
O          0.97590       -2.21170       -0.50000
N          3.42930        0.31450        0.02260
C          4.62300       -0.34560        0.02160
C          5.66640        0.09680       -0.68540
H          1.28190        1.50280        0.33060
H          0.41480        0.07080        0.92970
H          0.51310        0.39070       -0.82410
H          2.99550       -2.20380       -0.47100
H          0.46060       -2.37270        0.31400
H          4.74010       -1.21610        0.66360
H          5.57960        0.98600       -1.30060
H          6.62210       -0.41180       -0.65170
