21
qm7 4161 -2045.72
C          1.87470       -0.56310       -1.34910
C          2.37170       -0.04360       -0.00800
C          3.20670        1.23750       -0.14680
C          4.51530        1.01680       -0.91030
C          2.40740        2.50270       -0.58560
C          3.14500        3.29730        0.50790
C          3.42270        1.96050        1.22020
H          1.22520       -1.43100       -1.19790
H          2.70340       -0.87760       -1.98950
H          1.30270        0.19990       -1.88520
H          2.96200       -0.82410        0.48790
H          1.49920        0.14140        0.63180
H          5.14710        1.91200       -0.90660
H          4.32620        0.76320       -1.95810
H          5.09610        0.20350       -0.46130
H          1.32590        2.43960       -0.41300
H          2.57460        2.84970       -1.60940
H          4.04770        3.80680        0.15280
H          2.53470        4.01220        1.06570
H          4.41590        1.86650        1.66890
H          2.67560        1.72320        1.98780
