12
qm7 6641 -1241.52
N          0.97440       -0.02630       -0.00500
C          2.31890        0.02960       -0.00270
C          3.02860        1.21100       -0.00360
O          2.55480        2.45510       -0.00580
S          4.71250        0.92780       -0.00080
C          4.49040       -0.76960        0.00190
C          3.15580       -1.11520        0.00070
H          0.42190        0.82810       -0.00020
H          0.44220       -0.88820        0.00510
H          3.34960        3.01530       -0.00640
H          5.34570       -1.43100        0.00400
H          2.80900       -2.14080        0.00200
