18
qm7 4177 -1714.85
C          0.91740       -0.20880       -0.09180
C          2.40240       -0.15000       -0.12390
O          2.98080       -0.33830       -1.42180
C          3.11440        0.96880       -0.84290
C          4.51680        1.34870       -0.48630
C          4.54960        2.19590        0.78810
N          5.90830        2.61820        1.10700
H          0.53380        0.43930        0.70210
H          0.58540       -1.23110        0.11220
H          0.47210        0.11120       -1.03890
H          2.87290       -0.62640        0.72390
H          2.54160        1.77880       -1.27370
H          4.94950        1.91300       -1.32300
H          5.13760        0.45300       -0.35290
H          4.14220        1.62240        1.62810
H          3.91750        3.08200        0.66520
H          6.50200        1.80050        1.24210
H          5.90770        3.11990        1.99430
