15
qm7 1061 -1419.65
C          3.48400       -1.20130       -0.18650
O          2.55820       -0.12080       -0.15420
C          3.07500        1.13690       -0.01800
C          4.35910        1.52360        0.03120
C          4.78490        2.94430        0.19760
N          5.67230        3.04670        1.34780
H          2.91520       -2.12920       -0.29550
H          4.04790       -1.25860        0.75040
H          4.15940       -1.11670       -1.04470
H          2.25290        1.84310        0.05250
H          5.16490        0.80230       -0.05920
H          3.92850        3.61300        0.33380
H          5.32090        3.26800       -0.70030
H          5.15170        2.79020        2.18680
H          5.94110        4.02170        1.47310
