19
qm7 1329 -1805.02
C          1.43090       -1.24210       -0.40240
C          2.73820       -0.73950        0.19170
C          3.03150        0.70020       -0.23890
C          4.30410        1.26460        0.39230
N          5.48760        0.55930       -0.04900
C          6.13900        0.72970       -1.23050
N          5.92570        1.60130       -2.14390
H          1.24440       -2.27390       -0.08930
H          1.46260       -1.21960       -1.49630
H          0.58720       -0.62910       -0.07010
H          3.55010       -1.40310       -0.12730
H          2.68080       -0.79720        1.28460
H          2.18940        1.33820        0.05690
H          3.09890        0.75010       -1.33250
H          4.23890        1.19260        1.48400
H          4.39170        2.33200        0.15910
H          5.73310       -0.26160        0.49450
H          6.95550       -0.00140       -1.36720
H          5.15020        2.20710       -1.87330
