15
qm7 6678 -1645.66
C         -1.48070        0.82770        0.52730
C         -1.16120       -0.41080       -0.26670
C         -0.23980       -1.41570        0.29750
C          1.08080       -1.20640        0.45210
C          1.67150        0.06600        0.08530
C          0.90900        1.05780       -0.41040
C         -0.54190        0.92690       -0.64570
H         -2.47150        1.25380        0.41730
H         -1.07770        0.92470        1.52970
H         -1.92810       -0.80630       -0.92320
H         -0.66420       -2.37180        0.59140
H          1.72680       -1.97210        0.86810
H          2.73760        0.19920        0.23700
H          1.37190        2.00630       -0.66700
H         -0.90680        1.40670       -1.54710
