20
qm7 1514 -1921.45
C          2.75040       -2.08270        0.49250
C          2.91220       -0.83460       -0.37840
N          1.58110       -0.32130       -0.73310
C          3.72100        0.27430        0.33000
C          5.16950       -0.08240        0.59420
C          6.11830        0.07120       -0.56140
C          5.59390       -0.47440        1.80740
H          3.71760       -2.55700        0.68850
H          2.12040       -2.83090       -0.00300
H          2.28910       -1.84120        1.45730
H          3.41530       -1.11910       -1.30960
H          1.07330       -0.07240        0.11550
H          1.03870       -1.06250       -1.17620
H          3.22670        0.53920        1.27470
H          3.70040        1.19030       -0.27650
H          5.79660       -0.53740       -1.41150
H          7.13650       -0.23720       -0.30000
H          6.16020        1.11870       -0.87860
H          4.90850       -0.57140        2.64370
H          6.63590       -0.71340        1.99610
