9
qm7 6651 -1050.2
N          0.84720        0.16110       -0.00760
C          2.00540        0.10910       -0.00350
C          3.42700        0.06480        0.00160
C          4.29060        1.14150        0.00380
C          5.64100        0.68550        0.00900
N          5.83210       -0.63090        0.01070
S          4.34610       -1.37390        0.00610
H          3.98540        2.18000        0.00180
H          6.52370        1.31350        0.01160
