18
qm7 5753 -1716.52
N          1.39090       -1.68470       -0.31520
C          2.61580       -1.17950        0.30190
C          2.83900        0.27980       -0.08910
C          4.08330        0.86310        0.57600
O          5.23310        0.14210        0.12900
C          6.45010        0.55250        0.58890
C          6.74440        1.56600        1.41150
H          1.28420       -2.67230       -0.08430
H          1.48290       -1.64310       -1.33020
H          3.45960       -1.80120       -0.01650
H          2.52650       -1.26920        1.39000
H          1.96810        0.88220        0.19540
H          2.94900        0.34780       -1.17850
H          3.99320        0.78860        1.66700
H          4.17200        1.91830        0.28920
H          7.22170       -0.08800        0.17600
H          5.99450        2.22280        1.83590
H          7.77840        1.76210        1.67960
