12
qm7 4392 -1324.75
C          0.88940        0.22430        0.16150
C          2.21690        0.21780       -0.05540
C          2.99780       -1.05890       -0.20440
C          3.48520       -1.26740       -1.62370
O          3.03010       -0.70260       -2.61290
C          2.93110        1.45440       -0.11160
N          3.53260        2.44700       -0.12440
H          0.33640        1.15370        0.27610
H          0.31520       -0.69510        0.21650
H          2.40530       -1.93840        0.07170
H          3.87470       -1.03730        0.45300
H          4.26940       -2.03650       -1.73470
