18
qm7 218 -1751.2
C          1.17930       -0.67110       -0.06040
C          2.69580       -0.56540       -0.07520
C          3.15500        0.88590       -0.20780
C          4.68210        0.98610       -0.21060
C          5.13690        2.40960       -0.35750
C          5.86910        3.06160        0.55420
H          0.87220       -1.71840        0.03000
H          0.74790       -0.26960       -0.98360
H          0.75530       -0.11920        0.78540
H          3.08870       -1.15830       -0.90910
H          3.09430       -1.00040        0.84850
H          2.74710        1.47790        0.62110
H          2.75290        1.31380       -1.13500
H          5.09120        0.40360       -1.04550
H          5.08220        0.54510        0.71110
H          4.85340        2.92540       -1.27280
H          6.18180        2.58910        1.48040
H          6.17340        4.09050        0.38930
