15
qm7 6627 -1417.75
C          3.69850       -0.94650       -1.58380
S          2.98720       -0.38830       -0.05200
O          1.54480       -0.43420       -0.21020
O          3.62670       -1.11740        1.02870
C          3.46190        1.33990        0.05020
C          4.95710        1.47410        0.07970
C          5.66850        2.19650       -0.79600
H          4.78650       -0.91690       -1.51110
H          3.34290       -0.30450       -2.39160
H          3.36920       -1.97400       -1.75350
H          3.02920        1.73450        0.97410
H          3.00820        1.85580       -0.80120
H          5.47860        0.95700        0.88610
H          5.20140        2.74620       -1.60830
H          6.75070        2.26230       -0.70960
