18
qm7 5749 -1780.03
C          1.10040        0.17750        0.14360
C          2.57020       -0.08420       -0.18520
C          2.83500       -1.54750       -0.56070
C          2.75400       -1.56440       -2.07610
C          3.23970       -0.20020       -2.44460
C          2.31230        0.97370       -2.46330
N          3.13940        0.72930       -1.28740
H          0.92190        1.24210        0.32230
H          0.81820       -0.36420        1.05290
H          0.42750       -0.16080       -0.64800
H          3.14570        0.14680        0.72000
H          2.14210       -2.25600       -0.09710
H          3.85140       -1.82280       -0.25270
H          3.37630       -2.35580       -2.50370
H          1.72260       -1.71530       -2.41530
H          4.17530       -0.17270       -2.98500
H          2.59970        1.83060       -3.06160
H          1.24500        0.81210       -2.42230
