15
qm7 2576 -1614.03
C          0.94240       -0.03690        0.00910
C          2.43520       -0.00240        0.01700
C          3.13900        1.13800        0.00000
C          4.54500        1.13800        0.00000
C          5.73520        1.13800        0.00000
C          7.14120        1.13800        0.00000
C          7.84450        2.27530        0.00000
H          0.59360       -1.07220       -0.04130
H          0.54170        0.49370       -0.86010
H          0.53800        0.40900        0.92470
H          2.94920       -0.96020        0.03380
H          2.63150        2.09830       -0.01660
H          7.65450        0.18120       -0.00000
H          7.35980        3.24700        0.00010
H          8.92880        2.25480        0.00000
