11
qm7 5754 -1211.43
N          1.01800       -0.28260       -0.02560
C          2.36830       -0.01860       -0.03190
C          3.05350        1.13800        0.00000
C          2.33900        2.43270        0.00950
O          2.90300        3.51320        0.13400
C          4.45950        1.13800        0.00000
N          5.61030        1.13800        0.00000
H          0.77180       -1.22550        0.27860
H          0.40760        0.42150        0.38230
H          2.93400       -0.95300       -0.08190
H          1.24450        2.38270       -0.10140
