16
qm7 385 -1518.14
C          1.81940       -0.70030       -0.37210
C          3.31410       -0.50490       -0.17970
C          3.66450        0.96530        0.02880
C          5.15000        1.12010        0.26690
N          5.63100        1.09350        1.53660
N          5.98450        1.24040       -0.71200
H          1.59230       -1.75990       -0.52410
H          1.46060       -0.14660       -1.24530
H          1.26360       -0.35660        0.50580
H          3.84790       -0.89560       -1.05470
H          3.64900       -1.09660        0.68110
H          3.12340        1.36960        0.89180
H          3.37940        1.55580       -0.84930
H          5.11590        0.55560        2.22180
H          6.63540        0.95320        1.56620
H          5.48700        1.23880       -1.60860
