15
qm7 3155 -1514.82
C          0.77760        0.22220        0.10530
C          2.23570        0.07360        0.46160
O          2.61380       -0.94490        1.05430
C          3.19830        1.21080        0.08860
C          2.69030        2.65060       -0.01800
O          3.76500        3.13270        0.82360
C          4.08360        1.77270        1.20660
H          0.30520        0.93920        0.78130
H          0.27510       -0.74400        0.20150
H          0.68420        0.55650       -0.93060
H          3.79330        0.92880       -0.79120
H          1.71820        2.86980        0.43360
H          2.73390        3.08490       -1.02110
H          5.15140        1.56050        1.10710
H          3.75870        1.56620        2.23120
