18
qm7 4623 -1718.61
C          1.02710       -0.21210        0.11260
C          2.50260        0.00170       -0.23860
C          2.81450       -0.96710       -1.37370
O          3.62360       -1.88730       -1.27880
N          2.81200        1.38900       -0.67880
C          2.43220        2.37900        0.33650
C          4.24940        1.53740       -0.96210
H          0.75300        0.30370        1.03810
H          0.81320       -1.27700        0.25880
H          0.36970        0.14270       -0.68940
H          3.11870       -0.27590        0.62650
H          2.25750       -0.79930       -2.31230
H          1.34680        2.41250        0.47070
H          2.72150        3.38760        0.01940
H          2.90210        2.17670        1.30540
H          4.56180        0.89240       -1.78940
H          4.86730        1.30720       -0.08690
H          4.47260        2.56190       -1.28070
