17
qm7 4936 -1574.47
C          6.46550        1.45850        3.06060
C          6.87350        2.23430        1.82370
O          5.76380        3.04080        1.41720
N          6.14430        3.68380        0.23300
C          6.08240        5.05660        0.31310
C          5.93840        5.83740       -0.96800
N          6.12310        5.71300        1.42770
H          7.29050        0.83890        3.42340
H          5.60820        0.81260        2.84370
H          6.15590        2.14030        3.85990
H          7.14550        1.53820        1.02170
H          7.73130        2.87680        2.05340
H          5.72620        3.27140       -0.59820
H          4.88000        6.05170       -1.13520
H          6.32630        5.26340       -1.81410
H          6.48670        6.78140       -0.89580
H          6.18870        5.00480        2.16900
