19
qm7 2344 -1863.32
C          0.98180        0.05950        0.10770
C          2.50890        0.00460       -0.00760
C          2.97900       -1.36230       -0.52230
C          2.70700       -1.53600       -2.01420
C          3.20190       -0.32950       -2.80100
O          2.64420        0.87880       -2.28630
C          3.02630        1.11210       -0.93060
H          0.66630        1.01310        0.54420
H          0.61400       -0.74120        0.75750
H          0.48960       -0.03940       -0.86420
H          2.92110        0.16160        0.99730
H          2.50800       -2.17470        0.04310
H          4.06010       -1.44750       -0.35240
H          3.18580       -2.44990       -2.38200
H          1.62780       -1.65060       -2.16990
H          4.29620       -0.26360       -2.78010
H          2.89760       -0.41880       -3.84870
H          4.11900        1.18880       -0.87350
H          2.61840        2.08350       -0.63100
