13
qm7 6578 -1221.07
C          1.10130       -0.27120        0.03710
C          2.54850        0.16270       -0.08280
S          2.71470        1.92940        0.07640
O          2.10800        2.57430       -1.07230
O          2.37780        2.32020        1.43250
C          4.45560        2.21290       -0.07860
O          5.22140        1.29850       -0.37050
H          1.02120       -1.35830       -0.05570
H          0.48770        0.18530       -0.74580
H          0.68060        0.02160        1.00430
H          2.95050       -0.12270       -1.05910
H          3.14970       -0.29830        0.70680
H          4.79450        3.24310        0.10580
