13
qm7 2902 -1417.01
C          1.47940       -0.51220        0.77890
C          2.43460       -0.18530       -0.10150
C          3.15710        1.13200       -0.12160
C          4.65790        0.94820        0.03850
O          5.30130        0.00200       -0.39920
C          5.35900        2.03160        0.69710
C          5.94420        2.92980        1.24180
H          1.00140       -1.48700        0.73870
H          1.15230        0.17180        1.55590
H          2.72610       -0.91310       -0.85840
H          2.78470        1.78670        0.67520
H          2.97960        1.63380       -1.07880
H          6.47500        3.72030        1.72110
