19
qm7 1997 -1786.22
N          1.41800        0.10210       -1.43680
C          1.97460        0.20880       -0.09130
C          3.15630        1.16250        0.00770
C          4.05550        0.89250        1.19760
N          3.35040        1.22340        2.42770
C          3.81580        1.74780       -1.23660
C          2.93080        2.61430       -0.39190
H          0.61420       -0.52270       -1.40660
H          2.10400       -0.35430       -2.03550
H          2.27510       -0.79310        0.23350
H          1.18570        0.54870        0.58800
H          4.97510        1.48520        1.14070
H          4.35150       -0.16230        1.21240
H          3.10030        2.21150        2.40690
H          3.98660        1.11180        3.21540
H          3.45270        1.48800       -2.22460
H          4.88190        1.94770       -1.21930
H          3.39750        3.39740        0.19270
H          1.96080        2.88870       -0.79300
