10
qm7 562 -1112.08
N          1.00000        0.00000        0.00000
C          2.15100        0.00000        0.00000
C          3.59500        0.00000        0.00000
C          4.13090        1.42650        0.01040
C          5.59710        1.42140        0.01030
N          6.75650        1.39860        0.01000
H          3.96820       -0.53460       -0.88230
H          3.96820       -0.54750        0.87440
H          3.76560        1.96350        0.89460
H          3.76550        1.97640       -0.86560
