19
qm7 1559 -1777.96
C          2.78610       -1.29140        0.96080
C          2.46010       -0.23910       -0.10240
N          0.99900       -0.06890       -0.17790
C          3.14440        1.11970        0.18780
N          4.61130        0.99430        0.21180
C          5.26410        1.48970       -0.99640
C          5.29060        2.28490        0.28280
H          3.85880       -1.51570        0.98040
H          2.26390       -2.23250        0.75550
H          2.49330       -0.95390        1.96080
H          2.80080       -0.60680       -1.07780
H          0.64410        0.20820        0.73740
H          0.56890       -0.97160       -0.37830
H          2.81350        1.48570        1.16920
H          2.80010        1.85870       -0.55000
H          4.65420        1.84740       -1.81740
H          6.16910        0.97100       -1.29010
H          6.20990        2.29910        0.85450
H          4.68990        3.18320        0.34910
