15
qm7 2683 -1517.58
C          3.04800       -1.02890       -0.74440
C          2.51720        0.13520        0.07680
C          3.41840        1.36850       -0.00240
O          3.50870        1.83280       -1.37310
C          3.08530        3.13130       -1.23320
C          2.74610        3.43840        0.00000
O          2.88930        2.39310        0.87900
H          2.39010       -1.89700       -0.63720
H          4.04910       -1.31870       -0.41010
H          3.09940       -0.77580       -1.80780
H          2.40420       -0.16990        1.12390
H          1.51200        0.39070       -0.28130
H          4.43230        1.12560        0.34000
H          3.07060        3.73170       -2.12480
H          2.37460        4.36170        0.40610
