20
qm7 6757 -1917.42
C          0.92540        0.11370       -0.26460
C          2.40690        0.14200        0.02630
C          2.72330        0.02950        1.49800
N          3.30330       -0.55660       -0.90100
C          3.36920        0.90800       -0.91070
C          2.83090        1.63820       -2.11730
C          4.62490        1.53400       -0.35090
H          0.69510       -0.02070       -1.32600
H          0.45990        1.04610        0.07070
H          0.44680       -0.71610        0.26910
H          3.78080       -0.17000        1.69740
H          2.15690       -0.79210        1.95010
H          2.44650        0.95590        2.01250
H          2.79750       -0.91210       -1.71330
H          2.04140        1.08990       -2.63840
H          3.63010        1.81190       -2.84680
H          2.42860        2.61180       -1.81630
H          5.15260        0.88290        0.35260
H          4.38120        2.46990        0.16320
H          5.33090        1.76400       -1.15700
