17
qm7 1410 -1785.88
C          0.99730        0.02710        0.10660
C          2.47730       -0.01850       -0.01030
C          3.25760       -1.10970       -0.05290
C          4.70630       -0.75160       -0.18480
C          4.69790        0.75100       -0.31610
C          5.74630        1.51120       -0.65090
C          3.28620        1.24360       -0.10250
H          0.56370       -0.97850        0.13210
H          0.56400        0.55740       -0.74790
H          0.70180        0.54640        1.02370
H          2.90500       -2.13000        0.00000
H          5.25360       -1.06490        0.71040
H          5.13940       -1.22630       -1.07070
H          6.72530        1.07460       -0.82610
H          5.64900        2.58670       -0.76380
H          2.95390        1.85940       -0.94340
H          3.21130        1.81120        0.83080
