15
qm7 137 -1455.34
C          0.97800       -0.07470        0.02100
C          2.49880       -0.05700        0.02830
C          3.04080        1.37130       -0.03080
C          4.54280        1.38590       -0.01410
C          5.29920        1.88100       -1.00070
H          0.61070       -1.10470        0.06520
H          0.58490        0.38730       -0.89030
H          0.57520        0.46710        0.88280
H          2.86810       -0.63520       -0.82710
H          2.85780       -0.55940        0.93520
H          2.67900        1.94230        0.83260
H          2.65900        1.87420       -0.92770
H          5.02970        0.97320        0.86750
H          4.86170        2.30820       -1.89790
H          6.38350        1.86840       -0.92960
