20
qm7 5638 -1917.04
C          0.97930        0.01130       -0.01270
C          2.49390        0.02370        0.03670
C          3.14420        1.05990        0.98800
C          4.22390        0.00070        1.29060
C          3.17490       -1.07900        0.90830
C          3.67350       -2.30120        0.15250
N          4.43700       -3.17100        1.04190
H          0.62040       -0.85250       -0.58100
H          0.60330        0.91560       -0.50140
H          0.54240       -0.03820        0.98980
H          2.91320        0.08340       -0.97870
H          2.53450        1.32330        1.86030
H          3.50270        1.97820        0.51590
H          5.08850        0.05400        0.61820
H          4.57970       -0.02810        2.32370
H          2.55260       -1.36850        1.76900
H          4.29990       -2.01160       -0.69880
H          2.82100       -2.86340       -0.24260
H          5.27980       -2.68800        1.35050
H          4.75550       -3.98740        0.52120
