17
qm7 1300 -1660.82
C          0.89310        1.76720        1.51860
C          1.67890        1.76260        0.43450
C          2.77530        0.75790        0.18940
C          4.16130        1.40070        0.04900
N          4.60510        1.95850        1.31390
C          5.85530        2.44670        1.54320
N          6.92430        2.25450        0.86170
H          0.10710        2.50850        1.63300
H          1.00410        1.03190        2.31050
H          1.51600        2.51350       -0.33780
H          2.53890        0.22380       -0.73860
H          2.79700        0.00920        0.99080
H          4.14450        2.18620       -0.71530
H          4.86380        0.62680       -0.28130
H          3.86440        2.40220        1.85190
H          5.90300        3.07340        2.45040
H          6.73010        1.63840        0.07280
