12
qm7 380 -1191.43
C          1.00000        0.00000        0.00000
C          2.44400        0.00000        0.00000
C          3.63420        0.00000        0.00000
C          5.06640       -0.05900       -0.09050
N          5.62410        1.09990       -0.01420
N          6.97460        1.05550       -0.13480
H          0.60600        1.02080        0.01170
H          0.60590       -0.52050        0.87820
H          0.60590       -0.50030       -0.88990
H          5.57170       -1.02900       -0.23290
H          7.34920        2.00540       -0.07170
H          7.40950        0.53710        0.63220
