17
qm7 2380 -1725.4
C          0.94570       -0.00270        0.07040
C          2.46240       -0.00520        0.04670
C          3.16510        1.08650        0.90670
C          4.15140       -0.02120        1.34070
O          5.26160       -0.01940        1.82580
C          3.16350       -1.12650        0.88910
C          3.76200       -2.27420        0.10300
H          0.55200       -0.87130       -0.46710
H          0.55490        0.89780       -0.41400
H          0.55830       -0.03270        1.09380
H          2.81770        0.02150       -0.99430
H          2.57950        1.48200        1.74190
H          3.61530        1.90540        0.34230
H          2.56070       -1.48580        1.73370
H          4.38890       -1.91850       -0.72120
H          2.97150       -2.90300       -0.31910
H          4.38050       -2.90340        0.75100
