15
qm7 3140 -1520.96
C          0.89700        0.30830       -0.14300
C          2.26880        0.23790       -0.74870
O          2.53320       -0.42860       -1.74170
C          3.30540        1.07200       -0.09280
C          4.34050        1.79850       -0.91850
C          3.24990        2.57080       -0.24390
O          3.63970        3.31430        0.91830
H          0.34890        1.14590       -0.58160
H          0.96570        0.43910        0.94040
H          0.36310       -0.62500       -0.34290
H          3.64470        0.67990        0.86030
H          4.30030        1.69050       -1.99700
H          5.34570        1.86090       -0.51860
H          2.47640        2.99510       -0.87710
H          4.05380        4.16030        0.67150
