17
qm7 1905 -1656.49
N          1.03540        0.03790        0.33960
C          2.47760        0.00610        0.06480
C          2.87550       -1.30600       -0.64490
C          2.70040       -1.01240       -2.10640
N          3.73450       -0.35070       -2.88780
C          2.69900        0.47570       -2.28730
C          2.87270        1.11110       -0.93750
H          0.79160        0.91520        0.79790
H          0.79320       -0.70610        0.99400
H          3.01010        0.12190        1.01450
H          2.26430       -2.15700       -0.32440
H          3.92210       -1.55010       -0.42790
H          1.94600       -1.59490       -2.61570
H          4.61460       -0.28770       -2.37630
H          1.94280        0.91830       -2.92070
H          3.91830        1.40250       -0.78620
H          2.25920        2.01270       -0.83030
