18
qm7 882 -1750.54
C          0.97150       -0.01160        0.01190
C          2.48640        0.01400        0.02590
C          3.15020        1.05720        0.96230
C          4.24190        0.00560        1.24740
C          3.19550       -1.07930        0.88390
C          3.71350       -2.29430        0.14160
H          0.60720       -0.87300       -0.55600
H          0.57620        0.89380       -0.45830
H          0.55840       -0.07480        1.02450
H          2.88250        0.07520       -0.99730
H          2.55550        1.32020        1.84510
H          3.49360        1.97590        0.47990
H          5.09450        0.06420        0.56080
H          4.61530       -0.02090        2.27440
H          2.60320       -1.38370        1.75910
H          4.31500       -2.01090       -0.72850
H          2.88240       -2.91370       -0.20920
H          4.33760       -2.90860        0.79830
