14
qm7 4146 -1485.27
C          0.93370       -0.03560       -0.00220
C          2.41260        0.06500       -0.00300
C          3.25250        1.15030       -0.00140
O          2.81430        2.41610        0.00170
C          4.58680        0.70130       -0.00370
C          4.53470       -0.67570       -0.00670
N          3.21500       -1.05310       -0.00630
H          0.46680        0.95420        0.01090
H          0.58660       -0.58410        0.87940
H          0.58450       -0.56180       -0.89640
H          3.57170        3.02410        0.00220
H          5.48760        1.29740       -0.00320
H          5.32030       -1.41990       -0.00920
H          2.88130       -2.00820       -0.00820
