20
qm7 7154 -1920.45
C          1.84320       -0.58770        1.21300
C          2.64970       -0.19820       -0.01610
C          2.99340        1.26330       -0.00750
C          4.24830        1.73970       -0.00790
C          4.58800        3.20550       -0.02100
C          5.40080        3.61000        1.21440
N          5.75530        5.02760        1.17160
H          1.59010       -1.65200        1.17680
H          0.90820       -0.02040        1.27000
H          2.41000       -0.40500        2.13190
H          2.06620       -0.41630       -0.91810
H          3.55490       -0.81510       -0.06390
H          2.15470        1.95750       -0.01480
H          5.08780        1.04710       -0.01460
H          3.67650        3.81370       -0.07780
H          5.16540        3.41380       -0.93050
H          6.31940        3.01450        1.27670
H          4.82140        3.41730        2.12460
H          6.33370        5.21120        0.35290
H          6.32840        5.25450        1.98310
