20
qm7 6904 -1915.77
C          2.96590       -1.03590       -0.67740
C          2.39870        0.15780        0.07500
C          3.36260        1.30550        0.09420
C          3.47400        2.31250       -1.03230
C          2.64010        2.24640       -2.26670
C          2.84660        2.71090        0.27800
N          3.56170        3.62780        1.16060
H          2.25700       -1.86920       -0.65900
H          3.90360       -1.37410       -0.22560
H          3.17010       -0.78300       -1.72220
H          2.19000       -0.13950        1.10950
H          1.43770        0.44360       -0.36710
H          4.28210        1.03400        0.60240
H          4.46680        2.68410       -1.26080
H          1.59540        1.99410       -2.05970
H          3.04450        1.49900       -2.95550
H          2.65220        3.21530       -2.77500
H          1.76650        2.84900        0.28440
H          4.56950        3.48860        1.10470
H          3.30920        3.45740        2.13340
