16
qm7 4616 -1505.79
C          0.01350        1.66290        1.08230
C          0.82690        0.43240        0.72310
C          2.16890        0.80120        0.10180
O          2.86690       -0.41690       -0.20230
C          4.07820       -0.28040       -0.78950
N          4.61550        0.85430       -1.07840
O          5.86280        0.62710       -1.67470
H         -0.94500        1.36920        1.52100
H         -0.19070        2.27060        0.19520
H          0.54420        2.28450        1.81030
H          0.26080       -0.19800        0.02670
H          0.99150       -0.17990        1.61800
H          2.76100        1.39340        0.80910
H          2.01080        1.37360       -0.81950
H          4.53100       -1.26620       -0.98180
H          6.17760        1.53310       -1.85380
