17
qm7 2505 -1643.43
C          0.86770       -0.11350        0.16600
C          2.37250        0.00480       -0.03810
C          2.79420        0.01230       -1.50160
O          2.23080        1.13820       -2.16820
C          3.06450        1.08050        0.81840
O          3.91010        0.09330        1.45480
C          3.19130       -0.98330        0.81230
H          0.60880       -0.17110        1.22930
H          0.47700       -1.01420       -0.31960
H          0.34170        0.75230       -0.24990
H          2.47160       -0.89830       -2.01840
H          3.88250        0.08210       -1.60530
H          1.30510        0.92650       -2.37870
H          2.43470        1.58950        1.55500
H          3.65710        1.82470        0.27790
H          3.86910       -1.64700        0.26660
H          2.63190       -1.57200        1.54660
