14
qm7 4218 -1437.02
C          0.99890        0.03920        0.09800
C          2.50270       -0.03160       -0.11610
O          2.78070       -1.14280       -0.99970
N          3.38070       -0.66490       -2.20150
C          3.53320        0.60980       -2.07240
C          3.06380        1.15520       -0.80730
C          3.17240        2.43370       -0.43910
H          0.72180        0.87170        0.75260
H          0.63670       -0.89210        0.54770
H          0.46680        0.15100       -0.85440
H          3.02300       -0.22020        0.82870
H          3.97840        1.26600       -2.83340
H          2.81070        2.76920        0.52790
H          3.62960        3.17610       -1.08600
