13
qm7 6708 -1239.32
O          1.07140       -0.28600        0.30400
S          2.42170       -0.03400       -0.14910
O          2.75380        0.24120       -1.52940
C          3.16370        1.21560        0.88810
C          4.53380        0.65940        1.21530
C          4.30110       -0.82720        1.41320
O          3.39500       -1.23060        0.39160
H          2.54970        1.31250        1.78820
H          3.20260        2.16670        0.35380
H          5.19840        0.81170        0.35600
H          4.98880        1.13600        2.08770
H          5.22900       -1.39890        1.32690
H          3.84380       -1.03490        2.38610
