18
qm7 4972 -1782.09
C         -0.91370        0.00130       -1.15950
C         -0.59570        1.04460       -0.03910
C         -1.23260       -0.00150        0.92210
C         -0.59610       -1.04470       -0.04210
C          0.90010       -1.21940        0.24930
N          1.66230       -0.00040       -0.07370
C          0.90040        1.21800        0.25270
H         -1.95740        0.00200       -1.49800
H         -0.26780        0.00260       -2.04160
H         -1.13550        1.99380       -0.10260
H         -0.87900       -0.00280        1.95710
H         -2.32990       -0.00120        0.93260
H         -1.13600       -1.99380       -0.10810
H          1.05570       -1.48570        1.30100
H          1.30170       -2.04510       -0.34870
H          1.84730        0.00100       -1.07770
H          1.30220        2.04520       -0.34300
H          1.05590        1.48120        1.30510
