13
qm7 255 -1361.02
C          1.03120        0.00640       -0.06440
C          2.52100       -0.00250       -0.01320
C          3.30750       -0.70900       -1.08220
C          3.32410        0.80130       -1.01190
C          4.51780        1.46920       -0.57470
N          5.48230        2.00940       -0.22340
H          0.63510        0.76710        0.61640
H          0.63730       -0.96730        0.24640
H          0.65370        0.22090       -1.07020
H          2.88330       -0.08280        1.00710
H          2.77190       -1.17050       -1.90430
H          4.19360       -1.25650       -0.77760
H          2.77590        1.32520       -1.78800
