21
qm7 3053 -2046.88
C          1.45820       -1.42180        0.31170
C          2.91300       -1.06280        0.62700
C          3.82860       -2.21550        0.21320
C          3.28320        0.26260       -0.06900
C          4.70060        0.78030        0.20730
C          4.95000        1.07220        1.65910
C          5.89610        0.47260        2.39300
H          0.78080       -0.62680        0.64160
H          1.16430       -2.34350        0.82540
H          1.30890       -1.57080       -0.76330
H          2.99150       -0.93450        1.71310
H          3.82570       -2.35480       -0.87320
H          3.50270       -3.15430        0.67460
H          4.86050       -2.04140        0.53190
H          2.56280        1.03520        0.23180
H          3.16870        0.14500       -1.15460
H          4.84290        1.71340       -0.35150
H          5.44260        0.07690       -0.18710
H          4.31990        1.82720        2.12490
H          6.55070       -0.28430        1.97240
H          6.03210        0.72770        3.43970
