13
qm7 6320 -1304.85
O          1.21960        0.03370       -0.01590
N          2.54710        0.02070        0.45570
C          3.26060       -1.19750        0.05350
C          4.50710       -0.63210       -0.57250
C          4.54960        0.70580       -0.60070
C          3.29120        1.11040        0.04070
N          2.96470        2.35070        0.17630
H          1.01120        0.97930       -0.13530
H          2.69710       -1.79260       -0.67260
H          3.49910       -1.80490        0.93100
H          5.28880       -1.26630       -0.96590
H          5.29810        1.37450       -0.98380
H          2.10690        2.40910        0.72850
