17
qm7 3343 -1633.1
C          1.18030        0.25080        0.11710
O          2.60140        0.24190        0.13580
C          3.13510        1.56120        0.04810
C          4.62420        1.46420        0.10200
C          5.44520        1.44960       -1.16320
C          5.46590        2.65600       -0.26680
O          6.65970        2.84880        0.50290
H          0.82830       -0.77670        0.24020
H          0.81500        0.63390       -0.83980
H          0.78680        0.85460        0.94060
H          2.77990        2.15570        0.89720
H          2.79740        2.03370       -0.88210
H          4.95070        0.84700        0.93060
H          4.93360        1.53810       -2.11490
H          6.31890        0.81150       -1.19580
H          4.96280        3.54870       -0.62500
H          7.03010        2.01090        0.82850
