15
qm7 128 -1472.6
C         -0.78040       -0.98870       -0.18950
C         -1.17390        0.40650        0.26330
C         -0.00320        1.25470       -0.20370
C          1.22000        0.38630        0.06690
C          0.72100       -1.05860        0.06870
H         -1.32990       -1.77140        0.34190
H         -0.97850       -1.10530       -1.26160
H         -1.25930        0.44350        1.35530
H         -2.12360        0.73280       -0.16900
H         -0.08860        1.45270       -1.27950
H          0.04830        2.21780        0.31310
H          1.99840        0.54830       -0.68500
H          1.65150        0.63050        1.04420
H          1.22690       -1.66620       -0.68850
H          0.91950       -1.51860        1.04420
