19
qm7 1714 -1771.9
C          1.13800        2.29150       -0.03370
N          2.57580        2.33390       -0.27160
C          3.25210        1.22660        0.41190
C          4.73960        1.24780        0.09770
C          5.60660        2.31110        0.80540
N          6.65330        1.27980        0.99410
C          5.60350        0.23970        0.88450
H          0.65890        3.12580       -0.55470
H          0.90530        2.38120        1.03190
H          0.69970        1.36600       -0.42060
H          2.93890        3.22130        0.07740
H          2.83290        0.27340        0.06750
H          3.08440        1.29200        1.49420
H          4.93550        1.19450       -0.98370
H          5.20030        2.69100        1.75020
H          5.90770        3.16170        0.18740
H          7.32220        1.25030        0.22310
H          5.90300       -0.65700        0.33430
H          5.19840       -0.06590        1.85680
