17
qm7 1863 -1631.81
C          6.71470       -0.21520        0.89290
N          6.11780        1.10880        0.75050
N          4.87190        1.12690        0.22010
C          4.42350        2.32180       -0.00160
C          3.06010        2.53080       -0.61040
C          2.18610        3.23270        0.38590
C          1.63990        4.43900        0.18930
H          7.73180       -0.12290        1.28470
H          6.77190       -0.72100       -0.07590
H          6.13320       -0.83470        1.58260
H          6.14320        1.57710        1.66010
H          5.01560        3.22950        0.22070
H          2.61710        1.56640       -0.87760
H          3.18660        3.12090       -1.52390
H          1.98060        2.70440        1.31560
H          1.80110        5.00040       -0.72720
H          1.00270        4.89180        0.94440
