15
qm7 4783 -1507.4
C          1.88580       -0.10310        0.17730
C          0.88360       -1.22370        0.46570
N         -0.07210       -0.59570       -0.47840
N         -1.33980       -0.40700        0.01900
C         -1.41670        0.80960        0.45150
C         -0.15900        1.61080        0.32490
C          0.72010        0.66790       -0.46730
H          2.66990       -0.38670       -0.53360
H          2.34900        0.36320        1.05140
H          1.21260       -2.22570        0.17450
H          0.54880       -1.25490        1.50950
H         -2.31840        1.24000        0.90800
H          0.23130        1.83830        1.32100
H         -0.37120        2.54130       -0.20860
H          0.94650        1.04690       -1.47100
