16
qm7 4239 -1583.64
C          1.31180       -0.48350       -0.38840
C          2.16940        0.66350       -0.89980
C          2.49300        1.63080        0.19490
C          3.81950        1.62200        0.86850
N          3.46960        2.65100       -0.07130
C          3.25040        3.95170        0.36440
O          2.72570        4.29860        1.41430
H          1.08880       -1.18390       -1.19870
H          0.36350       -0.11270        0.01280
H          1.82220       -1.03000        0.41030
H          1.62650        1.18880       -1.69500
H          3.08420        0.25690       -1.34810
H          1.62120        1.96800        0.74500
H          4.60420        0.97050        0.51360
H          3.88570        1.93750        1.90240
H          3.61800        4.67490       -0.38160
