19
qm7 6985 -1790.48
C          2.70790       -1.21360       -0.45080
C          2.22540        0.05640        0.23550
C          3.28740        1.13880        0.26240
N          4.47790        0.87220        1.10760
C          3.50480        1.95200       -0.99060
C          2.81660        2.58510        0.18200
N          3.53410        3.60820        0.95820
H          1.90420       -1.95630       -0.48180
H          3.55580       -1.65740        0.08080
H          3.02500       -1.00990       -1.47880
H          1.91940       -0.17700        1.26250
H          1.32800        0.41290       -0.28430
H          4.18830        0.57060        2.03730
H          5.02250        0.10490        0.71500
H          2.90290        1.73580       -1.86530
H          4.51040        2.27650       -1.23250
H          1.75180        2.77280        0.07120
H          4.48040        3.24820        1.12310
H          3.13090        3.67100        1.89210
