15
qm7 3318 -1580.85
C          3.07330       -1.13520        0.53420
O          2.34370        0.03830        0.19840
C          3.08410        1.18590        0.12130
C          2.56250        2.41370       -0.02670
C          3.63270        3.37920       -0.08480
C          4.81120        2.74770        0.02260
C          4.58640        1.26670        0.16710
H          2.36620       -1.96820        0.58800
H          3.55030       -1.03280        1.51450
H          3.81470       -1.37120       -0.23590
H          1.51330        2.65300       -0.09670
H          3.48290        4.44200       -0.19990
H          5.78130        3.22050        0.00920
H          5.04730        0.72430       -0.66360
H          4.98700        0.91050        1.12060
