15
qm7 6214 -1550.46
C          1.10590       -0.11460        0.24110
C          2.41410       -0.03740       -0.01820
C          3.19540        1.25650       -0.11020
C          4.55020        0.84710       -0.71800
C          4.51750       -0.66100       -0.63700
N          5.53890       -1.38460       -0.92300
N          3.27610       -1.06730       -0.26150
H          0.59050       -1.06780        0.28540
H          0.51560        0.78060        0.41010
H          3.34850        1.67390        0.89160
H          2.69490        2.00520       -0.73190
H          4.62390        1.14860       -1.76810
H          5.39710        1.25580       -0.16060
H          5.29970       -2.37210       -0.80860
H          2.97070       -2.02780       -0.24020
