16
qm7 3921 -1613.34
C          0.93940       -0.02340        0.18220
C          2.43930        0.02470       -0.07850
C          2.76760        0.02780       -1.56820
C          3.20460        1.07670        0.77440
N          4.09760       -0.00820        1.19510
C          3.26870       -0.99260        0.74850
O          3.24400       -2.16810        1.01420
H          0.71680       -0.05200        1.25450
H          0.49200       -0.91390       -0.27260
H          0.44240        0.85740       -0.23840
H          3.84890        0.05570       -1.74360
H          2.32950        0.90230       -2.06110
H          2.37530       -0.87030       -2.05730
H          2.66110        1.51360        1.61810
H          3.72450        1.86160        0.21880
H          4.56120       -0.15220        2.08150
