11
qm7 947 -1160.27
C          0.93990        0.01080       -0.00720
C          2.41600        0.01740       -0.00130
C          3.27060        1.09430        0.00210
O          4.55630        0.66460        0.00700
N          4.57620       -0.72070        0.00690
C          3.29390       -1.08920        0.00190
H          0.53660        1.02830        0.00320
H          0.55520       -0.51480        0.87270
H          0.56240       -0.49420       -0.90210
H          3.13850        2.16570        0.00170
H          3.05640       -2.14440        0.00080
