16
qm7 4881 -1511.72
C          1.62830       -0.73330        0.29690
C          3.05400       -0.41770       -0.11190
O          3.38010        0.89040        0.38170
C          4.62640        1.35190        0.09700
C          4.84050        2.72800        0.65360
N          5.48550        0.66150       -0.58660
O          6.68460        1.36720       -0.75120
H          1.33140       -1.72440       -0.05710
H          0.93660        0.01050       -0.11220
H          1.52330       -0.70040        1.38630
H          3.13590       -0.43230       -1.20440
H          3.73550       -1.15680        0.32370
H          3.99650        3.02890        1.28110
H          4.93760        3.44160       -0.16890
H          5.74580        2.74450        1.26640
H          7.22640        0.74150       -1.26710
