17
qm7 2727 -1696.4
C          0.80010       -0.11810        0.11920
C          2.27630       -0.01280        0.33220
C          3.07980        1.04490        0.09340
C          2.57890        2.38220       -0.39220
C          4.53920        0.99170        0.33290
C          5.39440        0.16210       -0.59550
O          5.49020        1.58940       -0.56520
H          0.57910       -1.02890       -0.44670
H          0.37850        0.71900       -0.44080
H          0.28880       -0.18520        1.08390
H          2.73570       -0.92490        0.71200
H          1.50470        2.51860       -0.24600
H          2.80180        2.50360       -1.45700
H          3.07150        3.19290        0.15610
H          4.80760        1.00350        1.38390
H          4.94530       -0.28560       -1.47250
H          6.21100       -0.40380       -0.16660
