17
qm7 389 -1613.17
C          1.32200        0.28720        0.13710
C          2.80230       -0.00040       -0.12470
C          2.95070       -0.84010       -1.39570
N          3.51510        1.27450       -0.30480
C          3.95790        1.88430        0.94700
C          4.93710        1.20640        0.02480
H          1.18760        0.86680        1.05680
H          0.76270       -0.64770        0.25130
H          0.86870        0.84960       -0.68700
H          3.19360       -0.58390        0.72020
H          2.55400       -0.31680       -2.27320
H          2.40800       -1.78650       -1.29730
H          4.00130       -1.08070       -1.59140
H          3.70580        1.40010        1.88210
H          3.94640        2.96720        0.97010
H          5.58710        1.83130       -0.57480
H          5.35900        0.25580        0.32560
