19
qm7 2443 -1906.2
C          0.71590       -0.59250       -0.06280
C          2.10180       -0.03060       -0.08130
C          2.46750        1.26720       -0.12260
C          1.50270        2.42450       -0.09720
C          3.93510        1.65350       -0.14310
C          4.31950        2.36150       -1.41240
C          4.82410        3.60200       -1.45970
H          0.65470       -1.43350       -0.76130
H         -0.04900        0.12750       -0.36160
H          0.47750       -0.96500        0.93800
H          2.88330       -0.79000       -0.06870
H          0.48150        2.12770        0.15140
H          1.47930        2.92530       -1.07030
H          1.80860        3.15410        0.66030
H          4.57270        0.76530       -0.04980
H          4.15100        2.27400        0.73580
H          4.17760        1.81190       -2.34010
H          4.98600        4.18650       -0.56000
H          5.08470        4.05940       -2.40950
