16
qm7 4370 -1610.42
C          2.52990       -0.48960        1.37280
C          2.52880        0.13110       -0.01800
C          2.97310        1.57660       -0.00380
C          2.07270        2.57100       -0.04210
N          4.31020        1.90450        0.01960
C          5.39660        1.07490        0.03770
O          6.54800        1.49390        0.04910
H          2.20420       -1.53320        1.31840
H          1.84290        0.04190        2.04000
H          3.52560       -0.47050        1.82610
H          1.51180        0.05720       -0.42530
H          3.15210       -0.45810       -0.70020
H          1.00650        2.36470       -0.06820
H          2.36180        3.61720       -0.04250
H          4.56680        2.88610        0.01670
H          5.16820        0.00020        0.04180
