16
qm7 5069 -1580.58
C          1.70130       -0.37130        1.52080
N          3.06580        0.09880        1.33780
C          3.11840        1.44000        0.73780
C          2.91850        2.49860        1.78400
C          2.14750        3.58330        1.63200
C          4.50140        1.65840        0.11070
O          5.25080        0.75160       -0.25130
H          1.72070       -1.38690        1.92620
H          1.15220       -0.39960        0.57470
H          1.15480        0.25340        2.23420
H          3.57300       -0.54130        0.71910
H          2.39850        1.54070       -0.08440
H          3.43790        2.35040        2.72990
H          1.60260        3.78010        0.71430
H          2.04300        4.30480        2.43930
H          4.75400        2.70840       -0.12080
