15
qm7 3793 -1539.55
O          2.26430        1.74520       -0.57550
C          2.60930        1.08590       -1.70350
O          1.83790        0.97310       -2.64670
C          3.97750        0.44140       -1.66540
C          5.03650        1.24620       -0.96170
C          5.45260        0.91980        0.45160
C          6.38080        0.61950       -0.69170
H          2.95420        1.72620        0.11440
H          4.29870        0.29870       -2.70380
H          3.86360       -0.54920       -1.21090
H          5.04780        2.28280       -1.28570
H          5.00370        0.07300        0.95970
H          5.72250        1.73760        1.11150
H          7.26300        1.24040       -0.80760
H          6.53800       -0.41930       -0.96200
