17
qm7 1051 -1552.49
C          1.20900       -0.18720        0.84040
N          2.63620       -0.03980        0.60170
C          2.97410        1.34680        0.25270
C          4.45270        1.45760       -0.14540
O          4.67320        0.72600       -1.35690
C          6.03530        0.78710       -1.75720
H          0.98680       -1.22740        1.09910
H          0.62130        0.07130       -0.04680
H          0.88270        0.43710        1.67950
H          2.91830       -0.63090       -0.18400
H          2.78210        2.00200        1.10940
H          2.35640        1.67760       -0.59100
H          5.09490        1.06230        0.65120
H          4.70420        2.51130       -0.31230
H          6.15120        0.20800       -2.67750
H          6.68190        0.35340       -0.98790
H          6.32950        1.82240       -1.95680
