19
qm7 2659 -1848.14
C          2.90780       -1.04760       -0.30100
C          2.32440        0.24030        0.26070
C          3.37950        1.28590        0.43640
O          3.52590        2.18190       -0.67350
C          3.07470        2.77050        0.55640
C          1.67190        3.28930        0.50610
C          4.08910        3.65910        1.20670
H          2.12340       -1.80080       -0.42220
H          3.67370       -1.45570        0.36640
H          3.37170       -0.87300       -1.27710
H          1.86390        0.03360        1.23360
H          1.52770        0.58110       -0.40940
H          4.27340        0.91000        0.91860
H          1.05250        2.76210       -0.22570
H          1.66320        4.34940        0.23020
H          1.19930        3.19030        1.48860
H          5.09690        3.23210        1.16170
H          3.83630        3.81370        2.26080
H          4.11840        4.63610        0.71310
