21
qm7 3218 -1987.3
C          1.45600        0.25890       -0.48660
C          2.95500        0.25220       -0.26240
O          3.39110        1.59890       -0.09490
C          4.80080        1.67760        0.11390
C          5.20730        3.14730        0.27600
C          6.69040        3.25540        0.62520
C          4.89820        3.95350       -0.98770
H          1.07720       -0.75780       -0.62260
H          1.20120        0.85250       -1.37070
H          0.94110        0.71740        0.36400
H          3.45850       -0.19530       -1.12650
H          3.19530       -0.32890        0.63470
H          5.32410        1.22720       -0.73810
H          5.05860        1.11670        1.02000
H          4.62030        3.58300        1.09490
H          7.31750        2.83860       -0.17020
H          6.91210        2.71420        1.55090
H          6.97980        4.30100        0.77230
H          5.43730        3.55470       -1.85370
H          5.19120        5.00100       -0.86000
H          3.82790        3.93560       -1.21660
