13
qm7 6569 -1264
C          2.07620       -0.85120        1.20210
C          2.36200       -0.24450        0.04200
S          3.27470        1.23830        0.00960
O          2.96890        1.91450       -1.23830
O          3.10480        1.93410        1.27200
C          4.91120        0.64110       -0.04500
C          5.51030        0.38350       -1.21560
H          1.49640       -1.76870        1.21810
H          2.39110       -0.44370        2.15980
H          2.03270       -0.63560       -0.91090
H          5.41140        0.50370        0.90290
H          5.01150        0.54310       -2.16800
H          6.53430        0.02360       -1.24410
