14
qm7 624 -1425.41
C          0.99860        0.03320        0.02430
C          2.48030       -0.03080        0.00680
C          3.25990       -1.10840       -0.06680
C          4.68390       -0.70160       -0.04690
O          4.68090        0.73690       -0.03140
C          3.31890        1.19240        0.08140
H          0.55300       -0.96480       -0.04140
H          0.63140        0.62230       -0.82190
H          0.64720        0.49910        0.95030
H          2.92390       -2.13230       -0.12530
H          5.19620       -1.06300        0.84860
H          5.21870       -1.04180       -0.93720
H          3.11600        1.88520       -0.74020
H          3.20280        1.71100        1.03770
