15
qm7 224 -1462.74
C          0.23310        0.77720       -0.20930
C         -0.85880       -0.24020       -0.06690
C          0.58210       -0.66400        0.05800
N          1.10120       -1.01310        1.38980
C          0.97140       -2.44740        1.62800
C          2.30610       -1.83100        1.30840
H          0.43840        1.17220       -1.19680
H          0.36640        1.49350        0.59330
H         -1.39710       -0.53920       -0.95790
H         -1.46400       -0.21180        0.83170
H          0.98740       -1.21110       -0.79220
H          0.48380       -3.05720        0.87740
H          0.77330       -2.73280        2.65370
H          3.01310       -1.70270        2.11890
H          2.75210       -2.02160        0.34100
