18
qm7 2028 -1772.45
N          1.19420        0.33650        0.17680
C          2.58430        0.03790       -0.14600
C          2.63180       -0.62210       -1.49210
C          3.14130       -1.84000       -1.72430
C          3.32730        1.34580       -0.09430
C          4.06510        1.76140        1.15720
C          4.83660        1.37210       -0.07260
H          1.15740        0.72760        1.11590
H          0.67940       -0.54120        0.21780
H          2.97740       -0.64410        0.61870
H          2.22790       -0.05230       -2.32630
H          3.55900       -2.44590       -0.92650
H          3.14880       -2.25430       -2.72750
H          2.83890        2.12170       -0.67710
H          4.09030        1.08180        2.00150
H          4.04160        2.80980        1.43220
H          5.33200        2.15670       -0.63330
H          5.36960        0.42840       -0.06760
