15
qm7 2707 -1546.92
C          1.00000        0.00000        0.00000
C          2.44400        0.00000        0.00000
C          3.63420        0.00000        0.00000
C          5.08090        0.00940       -0.00760
C          5.76540        1.01240        0.93220
O          6.63750       -0.02270        1.45400
C          5.78070       -1.03840        0.86580
H          0.60600        1.02080        0.01180
H          0.60600       -0.52060        0.87830
H          0.60590       -0.50030       -0.88990
H          5.49660        0.04590       -1.02270
H          5.15010        1.44330        1.72880
H          6.32900        1.80570        0.43320
H          6.35860       -1.78880        0.31870
H          5.17440       -1.52940        1.63420
