14
qm7 4845 -1460.91
C          1.04900       -0.15990        0.18890
C          2.52880        0.05350       -0.12480
O          2.83260       -0.62550       -1.34600
C          2.91120        1.51900       -0.20000
C          3.38280        2.12510       -1.30630
C          2.79620        2.28530        1.00290
N          2.69070        2.90130        1.98010
H          0.77650        0.24620        1.16800
H          0.80960       -1.22910        0.18130
H          0.41280        0.30960       -0.57020
H          3.13280       -0.42940        0.65250
H          2.13910       -0.40260       -1.99000
H          3.52580        1.58780       -2.23850
H          3.66200        3.17610       -1.30650
