17
qm7 3076 -1748.27
C          0.93510       -0.16160       -0.22950
C          2.43700        0.04950       -0.03380
C          3.20830       -0.75290       -1.00510
C          3.83520       -1.41140       -1.79030
C          2.83460        1.51590       -0.12710
C          2.55050        2.24950       -1.41240
C          3.42000        2.14890        0.90600
H          0.35690        0.45360        0.46880
H          0.66720       -1.20980       -0.05190
H          0.61300        0.08330       -1.24800
H          2.68310       -0.32410        0.96970
H          4.39390       -1.99270       -2.48700
H          1.47500        2.28110       -1.61120
H          3.04940        1.76620       -2.25790
H          2.90430        3.28590       -1.37700
H          3.63570        1.63850        1.83990
H          3.70600        3.19490        0.84490
