19
qm7 1609 -1899.39
C          0.81350        1.00220        0.92220
C          1.80260        0.71850       -0.19650
C          3.14620        1.31420        0.09550
C          4.00560        1.82450       -1.02980
C          3.37870        2.79860       -0.06460
C          4.23150        3.47590        0.91460
C          3.83330        3.91610        2.11660
H         -0.14300        0.51110        0.71900
H          0.63070        2.07740        1.01880
H          1.19010        0.63910        1.88390
H          1.39860        1.10250       -1.14050
H          1.91570       -0.36540       -0.31410
H          3.64560        0.79820        0.90950
H          3.61280        1.79940       -2.04050
H          5.07220        1.63760       -0.97390
H          2.56150        3.40450       -0.44520
H          5.27030        3.63830        0.63370
H          2.80950        3.78840        2.45080
H          4.52840        4.41220        2.78600
