14
qm7 885 -1345.95
O          2.74090        0.20230       -1.73730
C          2.23720       -0.05710       -0.43030
C          2.96050        0.82000        0.58450
C          4.37940        0.37970        0.77410
C          5.04570        0.45200        2.12330
O          4.53660       -0.78360        1.59900
H          2.31940       -0.44130       -2.33280
H          2.36870       -1.12050       -0.20580
H          1.16790        0.17580       -0.43170
H          2.42210        0.78420        1.53810
H          2.96610        1.86120        0.24320
H          4.98620        0.46350       -0.11710
H          4.51260        0.89800        2.95300
H          6.12150        0.57170        2.15880
