12
qm7 5607 -1275.87
N          0.99660       -0.06920        0.13570
C          2.32510        0.08090        0.07550
C          3.14750        1.18190        0.02590
O          2.71190        2.45300        0.02380
C          4.47470        0.71180       -0.02460
C          4.37580       -0.66270       -0.01000
O          3.07220       -1.05310        0.04590
H          0.41270        0.72830       -0.09230
H          0.60510       -0.97200       -0.10540
H          3.46910        3.06160        0.00820
H          5.39070        1.28170       -0.06840
H          5.09810       -1.46660       -0.03380
