17
qm7 1208 -1640.96
C          1.11020        0.11900       -0.93270
C          2.30780        0.08780       -0.04020
C          2.71490       -0.99560        0.63730
C          3.13250        1.33370        0.07820
C          2.39630        2.61980        0.39810
N          4.42500        1.25880       -0.09970
N          5.11430        2.41800       -0.00490
H          1.36460        0.56370       -1.90050
H          0.30170        0.70280       -0.48310
H          0.72560       -0.88820       -1.12550
H          2.17600       -1.93520        0.58180
H          3.60810       -0.97250        1.25680
H          1.35820        2.42670        0.68070
H          2.40760        3.27330       -0.47920
H          2.87770        3.12850        1.23890
H          6.11520        2.20820        0.01130
H          4.98210        2.98130       -0.84810
