13
qm7 3547 -1456.03
O          1.03950       -0.09830        0.10980
C          2.23170        0.12230        0.00750
C          2.90680        1.41540        0.25020
C          4.21530        1.21070        0.02720
C          4.58810       -0.14720       -0.39030
C          4.35710       -1.32050        0.51820
C          3.24920       -0.88270       -0.40400
H          2.39670        2.31030        0.55830
H          4.96080        1.98980        0.13870
H          5.23580       -0.25030       -1.25150
H          4.86740       -2.24920        0.28550
H          4.24110       -1.14810        1.58290
H          3.00810       -1.49640       -1.26240
