13
qm7 6283 -1339.22
O          1.12350       -0.02680       -0.57780
C          2.26960        0.11220       -0.17030
N          2.94250        1.28870        0.08150
C          4.30580        1.38010        0.56500
C          4.55910        2.86630        0.67250
C          3.23910        3.39260        0.21060
N          2.35530        2.50870       -0.11260
H          2.90310       -0.76470        0.04400
H          4.97630        0.88790       -0.14650
H          4.38370        0.86760        1.52910
H          5.35690        3.21330        0.01130
H          4.75920        3.19330        1.69560
H          3.05720        4.47560        0.15850
