12
qm7 633 -1287.92
C          1.00920        0.00590       -0.12300
C          2.33870        0.02140       -0.00280
C          3.28330       -1.14810       -0.00520
O          4.61460       -0.61260        0.20800
C          4.41610        0.75290        0.28050
C          3.16240        1.17460        0.16820
H          0.46900       -0.92770       -0.24330
H          0.42600        0.92110       -0.10130
H          3.27740       -1.67020       -0.96800
H          3.06260       -1.85280        0.80320
H          5.31140        1.33400        0.42700
H          2.82630        2.19790        0.20540
