13
qm7 5907 -1282.81
N          1.05490        0.04010       -0.05650
N          2.40850       -0.00660       -0.01310
C          2.95710        1.16000       -0.03630
C          4.39040        1.10060        0.00000
C          5.58070        1.10060        0.00000
C          7.02480        1.10060        0.00000
O          7.50900        2.43430       -0.06490
H          0.69250       -0.90880       -0.18210
H          0.67110        0.34730        0.84010
H          2.44190        2.13110       -0.09010
H          7.42650        0.54870       -0.85450
H          7.42120        0.64270        0.91150
H          7.11060        2.83780       -0.85450
