20
qm7 1455 -1909.85
C          2.86930       -0.93970       -0.29540
C          2.33620        0.42660        0.11340
N          3.43530        1.39120        0.10050
C          3.41820        2.30590       -1.03500
C          3.08440        2.79620        0.36270
C          1.66990        3.22280        0.65360
C          4.12890        3.59620        1.10060
H          2.06590       -1.68190       -0.26070
H          3.66390       -1.27330        0.37940
H          3.26770       -0.92050       -1.31460
H          1.92930        0.35290        1.12950
H          1.50640        0.68930       -0.55460
H          2.62660        2.21570       -1.76930
H          4.38770        2.55080       -1.45360
H          0.94190        2.80710       -0.05100
H          1.58290        4.31350        0.59040
H          1.38080        2.92040        1.66620
H          5.14570        3.24910        0.88470
H          3.97140        3.52140        2.18190
H          4.06960        4.65220        0.81660
