14
qm7 4447 -1379.19
C          1.28880       -0.18570       -0.32410
C          2.57330        0.47330        0.11150
C          3.78660       -0.41020        0.26260
C          4.58950       -0.45160       -1.00220
O          4.81370       -1.48820       -1.61940
N          2.57360        1.76170        0.28560
O          3.83910        2.23550        0.64310
H          0.49220        0.55460       -0.43680
H          0.98870       -0.92320        0.42500
H          1.44670       -0.68900       -1.28190
H          3.46330       -1.42560        0.51420
H          4.42940       -0.06090        1.07530
H          4.99780        0.51420       -1.34760
H          3.66950        3.18500        0.79980
