15
qm7 1776 -1622.33
C          1.00000        0.00000        0.00000
C          2.19020        0.00000        0.00000
C          3.63420        0.00000        0.00000
C          4.22230       -1.26110        0.64980
C          4.53820       -0.88860        2.10090
C          4.65440        0.59810        2.04120
C          4.15440        1.08240        0.89800
H         -0.06550        0.00290        0.00370
H          4.02650        0.11660       -1.01570
H          5.15940       -1.52680        0.14100
H          3.56700       -2.13770        0.58930
H          5.46750       -1.35810        2.43530
H          3.72810       -1.17920        2.77790
H          5.05460        1.20210        2.84450
H          4.10500        2.13340        0.64790
