13
qm7 3741 -1390.93
O          2.12630        0.71150       -0.42470
C          2.42160        1.88250       -0.64380
C          3.73180        2.54000       -0.25270
C          4.73920        1.54500        0.24420
C          5.98500        1.44430       -0.24070
C          6.91790        0.42930        0.28760
O          8.07260        0.36010       -0.11380
H          1.69320        2.55780       -1.12710
H          3.51470        3.27170        0.53190
H          4.10400        3.07840       -1.13150
H          4.40000        0.87490        1.03420
H          6.37390        2.08400       -1.02460
H          6.51950       -0.25150        1.05950
