15
qm7 5850 -1480.45
N          1.05320       -0.16680       -0.47180
C          2.40990       -0.30160       -0.55610
O          2.91750       -0.97700       -1.44340
C          3.18220        0.43100        0.52250
C          4.66590        0.26220        0.39690
C          5.50560        1.30440       -0.29420
N          5.54370        1.15340        1.15880
H          0.59540        0.38800        0.23790
H          0.48820       -0.63670       -1.16700
H          2.86090        0.03430        1.49290
H          2.90160        1.49090        0.48260
H          4.97060       -0.77660        0.33780
H          5.02970        2.20400       -0.66490
H          6.38130        0.98060       -0.84320
H          6.39300        0.66270        1.44750
