17
qm7 3152 -1635.13
C          1.04260        0.49950       -1.08290
C          2.55190        0.55800       -1.19540
O          3.06850        1.22180       -0.04560
C          4.50760        1.36370        0.00180
C          5.14570        2.46440       -0.85650
O          5.89450        2.97100        0.27680
C          5.07800        2.17430        1.17330
H          0.60570       -0.00360       -1.95000
H          0.62180        1.50830       -1.01030
H          0.74390       -0.03600       -0.17570
H          2.84200        1.10860       -2.09620
H          2.96600       -0.45430       -1.24670
H          5.00380        0.39120       -0.10500
H          4.46050        3.22190       -1.24990
H          5.80400        2.10900       -1.65390
H          5.68760        1.60500        1.88040
H          4.36140        2.79740        1.71740
