17
qm7 7052 -1775.15
C          1.12500        0.17610        0.20530
C          2.42230       -0.07370       -0.00860
C          3.00330       -1.46230       -0.15470
C          4.22910       -1.25770       -1.05840
C          4.62500        0.18250       -0.87750
C          3.91230        1.28510       -1.61510
C          3.48160        0.92090       -0.22580
H          0.75620        1.19510        0.26300
H          0.40580       -0.62780        0.32110
H          2.30420       -2.18600       -0.58400
H          3.32410       -1.82210        0.83020
H          5.03890       -1.93870       -0.77850
H          3.97230       -1.45100       -2.10660
H          5.62730        0.33700       -0.50540
H          4.43610        2.22480       -1.74870
H          3.26350        1.02710       -2.44450
H          3.70850        1.59110        0.59440
