20
qm7 5083 -1860.91
C          1.29810        2.51010        0.32040
N          2.70710        2.34780        0.66960
C          3.41880        1.59290       -0.37140
C          4.91470        1.43630       -0.02820
C          5.59660        0.55980       -1.07930
C          5.63790        2.78860        0.06330
O          5.15650        3.56090        1.15620
H          0.78490        3.04360        1.12620
H          0.80250        1.54370        0.18700
H          1.18470        3.10260       -0.59280
H          2.76460        1.82610        1.54810
H          3.31900        2.10690       -1.33590
H          2.96660        0.59830       -0.47600
H          4.99240        0.93390        0.94460
H          5.52780        1.00410       -2.07660
H          5.13500       -0.43350       -1.11790
H          6.65860        0.42180       -0.84410
H          5.50980        3.37230       -0.85450
H          6.71210        2.64130        0.21930
H          4.17600        3.52890        1.09090
