15
qm7 1602 -1472.1
C          1.17270       -0.08320        0.71980
C          2.52000        0.00000        0.00000
N          2.39630       -0.48090       -1.38640
N          2.08560       -1.79480       -1.54730
C          1.89060       -2.12310       -2.78110
C          3.00200        1.36120        0.00000
C          3.39930        2.48310        0.00000
H          1.25560        0.29440        1.74580
H          0.81380       -1.11650        0.77870
H          0.40530        0.51370        0.21230
H          3.24150       -0.63480        0.52930
H          3.26810       -0.25100       -1.87020
H          1.63060       -3.16360       -3.03090
H          1.96220       -1.41270       -3.62330
H          3.75010        3.48930        0.00020
