15
qm7 3644 -1585.06
O          2.93450       -1.12790       -0.47550
C          2.32120        0.03830        0.07390
C          3.30820        1.21100        0.06000
C          2.80290        2.40400        0.83520
C          2.70760        3.47070        0.02530
C          3.12340        3.10160       -1.30380
C          3.47670        1.80870       -1.31720
H          2.25650       -1.82490       -0.48320
H          2.02230       -0.19960        1.10080
H          1.41760        0.25950       -0.50610
H          4.28650        0.89470        0.44040
H          2.57140        2.39560        1.89030
H          2.38460        4.46180        0.30700
H          3.14730        3.77910       -2.14390
H          3.83770        1.25730       -2.17310
