18
qm7 1179 -1768.22
C          1.00120       -0.05360        0.00310
C          2.52000        0.00000        0.00000
C          3.00200        1.36120        0.00000
C          3.39930        2.48310        0.00000
C          3.88130        3.84430        0.00000
C          2.72280        4.84800       -0.01610
N          3.20310        6.23050        0.01410
H          0.65710       -1.09300        0.00310
H          0.58510        0.44210       -0.88110
H          0.58880        0.44080        0.88980
H          2.89540       -0.53280       -0.88090
H          2.89920       -0.53410        0.87850
H          4.52460        4.01250       -0.87220
H          4.50320        4.01510        0.88730
H          2.06340        4.68100        0.84410
H          2.11730        4.70550       -0.91890
H          3.70080        6.39930        0.88770
H          2.40180        6.86130        0.01930
