18
qm7 5308 -1707.28
C          1.31500        0.20950       -0.27810
O          2.71800        0.26130       -0.06020
C          3.21420        1.59430       -0.15150
C          4.68640        1.56350        0.10340
C          5.66540        1.53120       -1.04220
C          5.52880        2.77160       -0.20540
N          6.61150        3.14520        0.69970
H          0.98360       -0.82440       -0.14700
H          1.07580        0.52690       -1.29760
H          0.78790        0.83870        0.44620
H          2.72900        2.21670        0.60860
H          2.98840        2.00540       -1.14250
H          4.92380        0.98400        0.98820
H          5.28150        1.56120       -2.05600
H          6.55330        0.92010       -0.93320
H          5.03530        3.61910       -0.67790
H          7.09940        2.32270        1.05430
H          6.24640        3.62580        1.52160
