15
qm7 2590 -1575.81
C          0.82040        0.07960       -0.14980
C          1.92400        0.33840        0.56200
C          2.91900        1.31920        0.06620
C          2.51450        2.81900        0.19190
C          3.85320        3.15550        0.88930
C          4.03430        1.64020        1.10200
O          4.76340        0.97890        1.81040
H          0.09420       -0.64710        0.20390
H          0.61140        0.57330       -1.09410
H          2.11180       -0.18220        1.49890
H          3.33980        1.04980       -0.91020
H          1.64040        3.01230        0.82620
H          2.36000        3.33020       -0.76370
H          4.61630        3.58900        0.23680
H          3.76600        3.73710        1.80920
