12
qm7 7080 -1357.28
C          1.00000        0.00000        0.00000
C          2.19020        0.00000        0.00000
C          3.63420        0.00000        0.00000
C          4.14340        1.41110       -0.02250
C          4.84040        1.97610        0.97680
C          5.30820        3.31690        0.91100
N          5.69550        4.40890        0.86050
H         -0.06600        0.00250       -0.00020
H          4.01880       -0.52590       -0.88110
H          4.01280       -0.53820        0.87670
H          3.92540        1.98610       -0.92230
H          5.06820        1.42380        1.88180
