19
qm7 2925 -1846.98
C          0.92890       -0.21820        0.11300
C          2.45500       -0.04360       -0.01940
C          3.12210       -0.68400        1.21260
C          2.90510       -0.77920       -1.30790
O          4.32220       -0.79900       -1.46560
C          2.89220        1.42030       -0.07680
C          2.11260        2.51000       -0.11760
H          0.39960        0.19330       -0.75470
H          0.54250        0.27630        1.01240
H          0.65910       -1.27870        0.18450
H          2.78670       -0.20340        2.14000
H          4.21520       -0.59990        1.17750
H          2.87620       -1.75000        1.28490
H          2.46830       -0.32080       -2.20390
H          2.57530       -1.82370       -1.28370
H          4.59230        0.10090       -1.71700
H          3.96940        1.58610       -0.06460
H          1.02940        2.46070       -0.11970
H          2.55610        3.50180       -0.14320
