20
qm7 6851 -1914.1
C          0.99450        0.03600        0.07830
C          2.50650       -0.05450       -0.00780
N          3.19260        0.97190        0.81760
C          4.21340       -0.03280        1.21090
C          5.49340        0.12150        0.40080
C          3.19490       -1.14780        0.84590
C          3.67190       -2.38910        0.11950
H          0.53320       -0.81330       -0.43630
H          0.63150        0.95150       -0.40020
H          0.63970        0.03050        1.11510
H          2.83950       -0.03560       -1.05440
H          2.63550        1.29870        1.60750
H          4.44950       -0.00830        2.28230
H          5.30660        0.14260       -0.67800
H          6.17600       -0.70950        0.60690
H          6.01090        1.04810        0.67090
H          2.59700       -1.43980        1.72280
H          4.23570       -2.14500       -0.78620
H          2.81950       -3.00970       -0.17610
H          4.31540       -2.99100        0.76880
