17
qm7 3088 -1681.81
C          0.97620        0.18090       -0.83410
C          2.49860        0.21400       -0.77000
C          3.02740        1.43280        0.00000
O          2.52400        1.35510        1.34110
C          2.67630        2.56860        2.06730
C          4.47140        1.43280        0.00000
C          5.66170        1.43280        0.00000
H          0.64300       -0.67970       -1.42250
H          0.58440        1.08720       -1.30500
H          0.53720        0.09290        0.16460
H          2.89800        0.21160       -1.79220
H          2.83870       -0.71270       -0.28820
H          2.64020        2.34200       -0.47690
H          2.18250        2.44980        3.03530
H          2.20530        3.40090        1.53760
H          3.73410        2.78520        2.24900
H          6.72690        1.42700        0.00520
