16
qm7 5499 -1576.01
N          0.98700       -0.00240       -0.01340
C          2.44430       -0.01530        0.00280
C          3.01370       -1.14410        0.87120
C          3.83790       -0.28440        1.82330
C          4.55980        0.78210        0.95460
C          3.06230        1.16140        0.77060
O          2.93250        0.83690        2.23280
H          0.63410       -0.84020       -0.47060
H          0.64670        0.79500       -0.54730
H          2.82620       -0.06590       -1.02280
H          3.63140       -1.83610        0.29060
H          2.24820       -1.71470        1.40710
H          4.38450       -0.73130        2.65400
H          5.09750        0.42540        0.07330
H          5.16880        1.50660        1.50220
H          2.82410        2.19660        0.52270
