13
qm7 1600 -1343.14
C          0.82030        0.53300       -0.05870
C          2.27930        0.25670        0.10180
N          2.85960       -0.88550        0.28850
N          1.96280       -1.95090        0.33780
C          2.59280       -3.06110        0.52640
C          3.23120        1.33680        0.05360
C          4.02300        2.24010        0.01260
H          0.63700        1.60310       -0.18890
H          0.28130        0.18870        0.82850
H          0.44100        0.00100       -0.93580
H          2.03140       -4.00560        0.59060
H          3.68970       -3.12190        0.63000
H          4.73180        3.03400       -0.02240
