10
qm7 6383 -1073.94
O          0.98160        0.05600        0.00000
N          2.37920       -0.04430        0.00000
C          2.87890        1.14070        0.00000
C          4.31100        1.12370        0.00000
C          5.51240        1.11460        0.00000
C          6.95130        1.10160       -0.00000
O          7.58470        2.14700       -0.00000
H          0.70340       -0.87980        0.00000
H          2.32050        2.08920        0.00000
H          7.42330        0.10680       -0.00000
