13
qm7 199 -1254.21
C          1.01640       -0.02900       -0.07620
C          2.48800        0.14090        0.04900
O          3.24460       -0.48510       -0.99720
C          3.27080        0.94770       -0.95430
C          4.59580        1.52770       -0.61090
H          0.49980        0.66310        0.59540
H          0.72910       -1.04880        0.19790
H          0.66550        0.16210       -1.09630
H          2.84820        0.03980        1.06340
H          2.75350        1.48910       -1.73450
H          5.10760        0.95320        0.16800
H          4.47420        2.55450       -0.25230
H          5.23890        1.54950       -1.49620
