12
qm7 913 -1195.4
O          1.00330       -0.00110       -0.07980
C          2.42000        0.00000        0.00000
C          2.90200        1.36120        0.00000
C          3.29930        2.48310        0.00000
C          3.78130        3.84430        0.00000
O          2.72740        4.74950       -0.30950
H          0.72080       -0.92930       -0.01520
H          2.81360       -0.55690       -0.85540
H          2.71510       -0.52010        0.91640
H          4.57660        3.98320       -0.73890
H          4.18470        4.12130        0.97820
H          2.28860        4.39520       -1.10190
