13
qm7 4123 -1360.48
C          1.03780       -0.01170        0.00120
C          2.50760        0.11020       -0.00190
N          3.24880        1.20180       -0.02010
C          4.51570        0.71610       -0.02990
N          5.55950        1.54270       -0.06050
C          4.51750       -0.65290       -0.00700
O          3.21650       -1.06270        0.01120
H          0.56760        0.97610        0.00980
H          0.69960       -0.56050        0.88500
H          0.69720       -0.54490       -0.89170
H          6.51210        1.24060        0.09860
H          5.39500        2.53770        0.05570
H          5.26950       -1.42590       -0.00590
