17
qm7 1041 -1557.42
C          1.01610       -0.67310        0.53440
N          2.22430       -0.10800       -0.07310
C          2.89740       -1.13920       -0.87040
C          1.91150        1.05700       -0.93470
C          1.41590        2.26840       -0.13070
O          2.31370        2.54040        0.94450
H          0.55730        0.03360        1.23310
H          1.26320       -1.56330        1.12570
H          0.26910       -0.95740       -0.21590
H          3.16820       -1.99680       -0.24290
H          3.83400       -0.75360       -1.29010
H          2.27100       -1.49880       -1.69480
H          1.18600        0.80050       -1.71620
H          2.83870        1.36700       -1.43310
H          0.41840        2.09830        0.28610
H          1.36710        3.15660       -0.76890
H          2.64860        1.66090        1.21630
