15
qm7 3578 -1553.66
O          1.21600        0.12680        0.65530
C          2.30810        0.06670        0.09440
C          3.04370       -1.24100       -0.04210
C          4.01010       -1.29090       -1.20670
C          4.88860       -0.05830       -1.18090
C          4.00380        1.16690       -1.27610
O          2.94800        1.18930       -0.30140
H          2.30660       -2.04320       -0.15670
H          3.58050       -1.40760        0.89950
H          4.62300       -2.19680       -1.14740
H          3.45540       -1.33370       -2.15200
H          5.45850       -0.03470       -0.24420
H          5.60610       -0.07550       -2.00750
H          4.60520        2.06960       -1.12700
H          3.54100        1.24370       -2.26650
