18
qm7 1686 -1789.03
C          3.01450       -1.08590       -0.53810
N          2.47730        0.05990        0.18410
C          3.25820        1.27890       -0.05380
C          3.20770        1.81890       -1.49700
C          3.34760        3.29610       -1.30050
C          3.10910        3.64790       -0.03190
C          2.77290        2.45960        0.81310
H          2.41770       -1.97290       -0.30350
H          4.04990       -1.29330       -0.24970
H          2.96520       -0.93990       -1.62130
H          2.47700       -0.14670        1.18290
H          4.30900        1.08500        0.21320
H          2.25790        1.59990       -1.99580
H          4.02680        1.41060       -2.09770
H          3.56850        3.98740       -2.10170
H          3.10990        4.66390        0.33750
H          3.29680        2.48090        1.77350
H          1.69380        2.43160        0.99960
