13
qm7 3488 -1437.73
O          0.91280       -1.30790       -0.00440
C         -0.43990       -1.49070       -0.00040
C         -1.45120       -0.61540        0.00150
C         -1.39300        0.81990       -0.00130
C         -0.29910        1.58670       -0.00100
C          1.06970        1.15130        0.00200
C          1.54740       -0.10010        0.00000
H         -0.63240       -2.55850        0.00100
H         -2.46070       -1.02400        0.00460
H         -2.36220        1.31630       -0.00360
H         -0.43460        2.66740       -0.00320
H          1.79910        1.95980        0.00540
H          2.61630       -0.28370        0.00170
