18
qm7 4399 -1725.7
C          0.69750        0.66550        0.43430
C          2.17490        0.64500        0.64890
C          3.05550        1.29280       -0.13260
C          4.54010        1.26510        0.06470
O          5.12490        0.78870       -1.14830
C          5.11490        2.66590        0.37370
N          6.58770        2.62500        0.40720
H          0.19580        1.03900        1.33280
H          0.33480       -0.34880        0.23550
H          0.40830        1.30350       -0.40680
H          2.52980        0.05100        1.48760
H          2.69920        1.86670       -0.98500
H          4.82170        0.56570        0.86090
H          6.03790        1.13930       -1.12720
H          4.72970        3.04350        1.32680
H          4.82590        3.37050       -0.41500
H          6.88670        2.06790        1.20920
H          6.93590        3.56850        0.58320
