20
qm7 5893 -1912.05
C          0.94660       -0.01800        0.04380
C          2.46240       -0.04730        0.02530
C          3.17830        1.01820        0.89980
C          4.25190       -0.05920        1.22890
C          5.52040        0.05380        0.39180
C          3.14380       -1.11110        0.92460
N          3.65390       -2.20310        0.10480
H          0.53930       -0.87990       -0.49450
H          0.57350        0.88910       -0.44330
H          0.55330       -0.03970        1.06520
H          2.82890       -0.02470       -1.01230
H          2.60570        1.34110        1.77850
H          3.52640        1.90750        0.36710
H          4.53480       -0.05670        2.29050
H          5.30450        0.11170       -0.68090
H          6.17500       -0.80670        0.56390
H          6.07870        0.95510        0.66670
H          2.57160       -1.42410        1.80520
H          4.14620       -1.91770       -0.73980
H          2.92720       -2.84830       -0.20540
