16
qm7 4894 -1652.22
C          0.39700        1.36260        0.79340
N          1.31590        0.34470        0.18380
C          0.43440       -0.39660       -0.75410
C         -0.46120        0.71640       -1.29060
C         -0.95550        1.09080        0.10130
C         -1.44570       -0.26500        0.56360
C         -0.57600       -1.16040        0.06530
H          0.76280        2.36880        0.56030
H          0.35300        1.24120        1.88100
H          2.02250        0.83780       -0.36000
H          0.95470       -0.98500       -1.51210
H          0.08920        1.52110       -1.79250
H         -1.25590        0.35800       -1.95720
H         -1.69220        1.89320        0.14190
H         -2.26080       -0.45800        1.24250
H         -0.55700       -2.22160        0.25520
