16
qm7 5616 -1643.82
C          1.01740        0.01540        0.50350
C          2.29160        0.00230        0.09430
C          3.09400       -1.24080       -0.23430
C          4.22240       -0.77890       -1.12210
N          5.36000       -0.02690       -0.59780
C          4.23240        0.72030       -1.14500
C          3.10900        1.22290       -0.27250
H          0.48420        0.94870        0.65710
H          0.47320       -0.90590        0.68610
H          2.47770       -1.98020       -0.75530
H          3.49450       -1.69060        0.67990
H          4.35150       -1.32800       -2.04270
H          5.35050       -0.01190        0.42490
H          4.36750        1.24040       -2.08220
H          3.51470        1.69720        0.62780
H          2.50070        1.95450       -0.81680
