16
qm7 1919 -1651.43
N          0.97360       -0.05650       -0.19510
C          2.40950       -0.00060        0.00070
C          3.06520       -1.22670       -0.55560
C          4.05320       -0.92340       -1.40910
C          4.19900        0.55710       -1.57380
C          3.06180        1.13210       -0.76040
C          2.67940        2.41620       -0.80110
H          0.56260        0.79060        0.18750
H          0.59730       -0.82320        0.35610
H          2.64670        0.08020        1.06820
H          2.78170       -2.23360       -0.28400
H          4.66970       -1.64570       -1.92500
H          5.16570        0.88380       -1.17970
H          4.11420        0.83570       -2.62900
H          3.20250        3.13740       -1.42150
H          1.82940        2.77460       -0.22930
