18
qm7 1531 -1757.68
C          0.95490       -0.17780        0.28620
C          2.46790       -0.27890        0.16780
N          3.04610        1.05980        0.05740
C          4.50920        0.99400       -0.04530
C          5.11100        2.39830       -0.18070
C          6.57980        2.34330       -0.25720
C          7.77890        2.30310       -0.32000
H          0.51530       -1.17750        0.36230
H          0.52120        0.31550       -0.59020
H          0.66280        0.38710        1.17800
H          2.71590       -0.87380       -0.71850
H          2.86260       -0.79730        1.04920
H          2.78590        1.61050        0.87580
H          4.79360        0.39450       -0.91940
H          4.92480        0.50060        0.84270
H          4.81730        3.01500        0.67750
H          4.71620        2.88810       -1.07880
H          8.84260        2.26970       -0.37780
