15
qm7 1078 -1419.64
N          1.02230        0.00860        0.14500
C          2.46000        0.02520       -0.08040
C          3.10900        1.06600        0.85140
C          4.14770       -0.01600        1.23230
O          5.40500        0.01830        0.52520
C          3.12120       -1.07680        0.76950
H          0.54740       -0.78790       -0.27990
H          0.54060        0.83730       -0.20280
H          2.78150        0.06730       -1.12520
H          2.50660        1.39870        1.70590
H          3.51340        1.94850        0.34670
H          4.34840       -0.05580        2.30860
H          5.18010        0.05090       -0.41960
H          3.53500       -1.91360        0.19890
H          2.52270       -1.48050        1.59560
