19
qm7 3345 -1838.28
C          1.20160        2.23380        1.12130
O          2.61760        2.12040        1.13210
C          3.09270        1.36880        0.01610
C          4.60070        1.30420        0.08560
C          5.14070        0.45670        1.20750
C          5.38230        1.33450       -1.21330
C          5.38600        2.53710       -0.31300
H          0.89630        2.81420        1.99580
H          0.73740        1.24470        1.17870
H          0.86560        2.75670        0.22090
H          2.76360        1.85320       -0.91150
H          2.67410        0.35600        0.04500
H          6.23640        0.45860        1.23130
H          4.81110       -0.58130        1.09190
H          4.78680        0.82520        2.17570
H          4.84010        1.40700       -2.14980
H          6.29560        0.75450       -1.28520
H          6.29620        2.76870        0.22920
H          4.83360        3.41660       -0.62650
