15
qm7 1077 -1435.56
N          0.98720        0.01980       -0.04190
C          2.44190        0.00920        0.02580
C          2.99970        1.11850        0.89070
C          4.40550        0.61890        1.15710
O          4.34610       -0.81420        1.18070
C          3.05440       -1.21770        0.69570
H          0.66380       -0.74160       -0.63780
H          0.66850        0.88370       -0.47930
H          2.85170        0.10640       -0.98760
H          2.44880        1.18870        1.83800
H          2.98220        2.10330        0.41400
H          5.08760        0.91120        0.35160
H          4.80800        0.98740        2.10500
H          3.16530       -2.06080        0.00640
H          2.46640       -1.55050        1.55940
