12
qm7 6484 -1249.8
C          0.93430        0.02980       -0.00530
C          2.42140        0.03190       -0.00150
N          3.06740        1.20040       -0.00020
S          4.70110        0.91510        0.00380
C          4.58620       -0.79340        0.00370
C          3.25340       -1.12910        0.00050
O          2.80780       -2.40110       -0.00050
H          0.52720        1.04610        0.00380
H          0.55270       -0.49470        0.87650
H          0.55760       -0.47700       -0.89960
H          5.46480       -1.42000        0.00580
H          3.55080       -3.02810        0.00140
