16
qm7 1914 -1646.43
N          1.08350       -0.19260        0.10940
C          2.46670        0.19780       -0.07320
C          2.78930        1.46200        0.67730
C          3.77210        1.23060        1.56580
C          4.24350       -0.16170        1.56970
C          3.32020       -1.27090        1.98370
C          3.37740       -0.85650        0.53040
H          0.93490       -1.09570       -0.33410
H          0.48480        0.46990       -0.37670
H          2.69420        0.32620       -1.13720
H          2.29730        2.40920        0.52340
H          4.17640        1.97960        2.23390
H          5.31190       -0.33070        1.54700
H          3.76160       -2.22280        2.25450
H          2.43050       -1.02530        2.55390
H          3.84570       -1.50920       -0.19140
