14
qm7 4225 -1459.17
C          0.96790       -0.18340       -0.01230
C          2.46780        0.05900        0.02210
C          2.78610        1.50500        0.00490
C          3.04660        2.44030        0.97690
C          3.26780        3.62600        0.25550
N          3.15470        3.44210       -1.06150
O          2.85040        2.09910       -1.21890
H          0.75640       -1.25730        0.00290
H          0.51850        0.23880       -0.91790
H          0.47240        0.27280        0.85180
H          2.93840       -0.43510       -0.83560
H          2.88940       -0.39980        0.92380
H          3.07150        2.28800        2.04490
H          3.50560        4.61310        0.62540
