11
qm7 78 -1131.38
O          1.05870        0.00350        0.20480
C          2.26370       -0.00430        0.07270
C          3.34670        1.08990       -0.01730
C          4.27250       -0.00140       -0.61000
C          3.32070       -1.11560       -0.10670
H          3.65200        1.47070        0.96170
H          3.10930        1.91650       -0.68910
H          4.35220        0.04180       -1.70260
H          5.28180       -0.03080       -0.18930
H          3.06390       -1.87860       -0.84340
H          3.61540       -1.58100        0.83770
