21
qm7 3743 -2051.87
C          0.85800        1.02770       -1.31740
C          2.37870        1.04360       -1.29340
C          2.91320        1.66730       -0.00260
C          4.41690        1.66810        0.01260
C          5.25240        2.72460        0.03110
C          4.83640        4.16950        0.02840
C          6.74540        2.51730        0.05190
H          0.49890        0.57180       -2.24500
H          0.45500        2.04340       -1.25980
H          0.45890        0.45040       -0.47790
H          2.74520        1.60520       -2.16220
H          2.74810        0.01530       -1.39620
H          2.56400        1.08410        0.85810
H          2.49700        2.67000        0.11870
H          4.85490        0.66840        0.01920
H          3.75550        4.31590       -0.01800
H          5.26880        4.68330       -0.83730
H          5.19610        4.66490        0.93650
H          7.01950        1.45710        0.04730
H          7.17830        2.96840        0.95140
H          7.20530        2.98200       -0.82640
