17
qm7 3347 -1635.49
C          2.87580       -0.93970        0.77240
O          4.05840       -0.49390        0.12360
C          4.24090        0.91300        0.28040
C          5.55320        1.29960       -0.33590
C          6.79570        0.82200        0.34380
C          5.60720        1.66900       -1.79990
O          5.61460        2.66850       -0.76830
H          2.77100       -2.01430        0.59910
H          1.99670       -0.43200        0.36300
H          2.94300       -0.76580        1.85100
H          4.24100        1.17350        1.34550
H          3.40870        1.43860       -0.20370
H          7.69210        1.30870       -0.05680
H          6.91160       -0.25750        0.21040
H          6.75490        1.03330        1.41800
H          4.70940        1.56540       -2.39630
H          6.52790        1.50370       -2.34610
