16
qm7 5566 -1514.97
N          0.95250        0.12100        0.07730
C          2.40740       -0.00760       -0.06320
C          3.12430        0.92540        0.92440
O          3.88720       -0.18960        1.46830
C          2.94640       -1.12740        0.84960
C          3.69950       -2.25790        0.16440
O          4.47750       -2.96490        1.12920
H          0.42260       -0.62160       -0.37830
H          0.57760        0.99610       -0.28980
H          2.78820        0.01380       -1.08760
H          2.52070        1.39980        1.70550
H          3.77840        1.67030        0.46240
H          2.24720       -1.50130        1.61010
H          4.38130       -1.88130       -0.60500
H          3.00620       -2.96280       -0.30350
H          4.91870       -2.27700        1.66570
