14
qm7 6353 -1352.2
O          0.71370        1.67830       -0.44580
N          2.03170        1.53040       -0.88980
C          2.80170        1.38000        0.13780
C          4.31650        1.20350       -0.03560
C          5.07970        2.26920       -0.82800
O          6.06010        2.40930        0.22930
C          5.22420        1.63430        1.11980
H          0.22120        1.79360       -1.28060
H          2.40590        1.38160        1.16820
H          4.55290        0.18780       -0.38050
H          4.55320        3.21260       -1.00360
H          5.53360        1.92040       -1.75990
H          5.78180        0.82580        1.60110
H          4.76580        2.27110        1.88310
