20
qm7 5335 -1855.07
C          1.28660        0.04320        0.06730
O          2.66110        0.38340        0.16300
C          2.99640        1.78120        0.02450
C          2.54600        2.34380       -1.33210
C          2.38880        2.60400        1.17030
C          4.54840        1.85370        0.14810
N          5.23990        1.07760       -0.89040
H          1.20170       -1.04120        0.18630
H          0.87770        0.30260       -0.91240
H          0.70360        0.51170        0.86380
H          2.83680        1.68230       -2.15500
H          2.97110        3.33720       -1.51210
H          1.45590        2.44210       -1.38130
H          2.61650        2.14870        2.14050
H          1.29750        2.65750        1.09410
H          2.76790        3.63170        1.16890
H          4.84910        1.44370        1.12030
H          4.89440        2.89210        0.10090
H          4.78800        0.15940       -0.92330
H          6.20040        0.90990       -0.59780
