20
qm7 1403 -1912.68
C         -0.05900       -0.26300        0.86210
C          1.44350       -0.49570        0.84730
C          2.20730        0.81200        0.63660
N          3.64560        0.54450        0.62230
C          4.40490        1.77330        0.41190
C          5.86650        1.44790        0.41980
C          6.70790        1.69580       -0.59240
H         -0.58790       -1.20820        1.02220
H         -0.40040        0.15960       -0.08930
H         -0.34320        0.42540        1.66520
H          1.68550       -1.20730        0.04950
H          1.74310       -0.95640        1.79570
H          1.96400        1.50980        1.44730
H          1.89630        1.27020       -0.31060
H          3.86090       -0.10390       -0.13490
H          4.20690        2.48490        1.22130
H          4.11730        2.24750       -0.53340
H          6.25220        0.98550        1.32640
H          6.37240        2.15800       -1.51550
H          7.75930        1.43430       -0.51450
