19
qm7 1543 -1924.23
C          1.00150        0.01570       -0.05960
C          2.51730       -0.01400        0.05260
C          3.07430        1.12290        0.90970
C          4.48980        0.66280        1.23330
C          4.32660       -0.82360        1.37670
C          5.17130       -1.62510        2.03690
C          3.04070       -1.28080        0.73870
H          0.64260       -0.82210       -0.66650
H          0.66670        0.94560       -0.53090
H          0.52490       -0.05270        0.92490
H          2.94710        0.05430       -0.95570
H          2.49290        1.24210        1.83280
H          3.06740        2.08140        0.38050
H          5.16190        0.88380        0.39550
H          4.87270        1.14310        2.13840
H          4.98100       -2.69000        2.13090
H          6.07070       -1.23400        2.50410
H          3.20620       -2.07850        0.00830
H          2.34760       -1.63410        1.50850
