13
qm7 4073 -1300.48
C          1.04110       -0.05070        0.20750
C          2.36290       -0.00370        0.02750
C          3.27590        1.17380        0.00580
O          4.59260        0.71410       -0.39630
N          4.46870       -0.65400       -0.70570
C          3.26670       -1.12350       -0.27430
N          3.01660       -2.37430       -0.09690
H          0.48390       -0.98000        0.15210
H          0.47200        0.85490        0.39360
H          3.37230        1.62000        1.00020
H          2.94690        1.93310       -0.71030
H          5.26880       -1.23880       -0.48360
H          2.07080       -2.50270        0.26940
