12
qm7 5870 -1259.05
N          1.02820        0.05420        0.03480
C          2.38380       -0.03350       -0.00760
O          2.98240       -1.09740       -0.05380
C          3.09950        1.21760        0.00000
C          3.69460        2.24830        0.00000
C          4.41660        3.49890        0.00000
O          3.51090        4.57740       -0.18990
H          0.54930        0.94020        0.10100
H          0.49730       -0.80480        0.04760
H          5.16430        3.53350       -0.79810
H          4.93350        3.65720        0.95090
H          3.06800        4.42190       -1.04090
