15
qm7 2150 -1478.87
N          0.89010        1.10410       -0.80400
N          2.21420        0.98060       -1.04480
C          2.93410        1.16870        0.01460
C          4.43230        1.09960       -0.05960
C          4.99730        2.51250       -0.01540
C          6.46710        2.49990       -0.05870
C          7.66620        2.49560       -0.09860
H          0.40560        1.25880       -1.69330
H          0.50880        0.21320       -0.47240
H          2.49270        1.42270        0.99660
H          4.73330        0.58670       -0.98010
H          4.78740        0.50790        0.79160
H          4.66110        3.02220        0.89570
H          4.60830        3.09680       -0.85810
H          8.73140        2.49420       -0.13880
