16
qm7 4943 -1498.91
C          1.16090       -0.38970        0.46950
C          2.55050       -0.24890       -0.11850
O          3.08110        1.01540        0.28020
N          4.46910        1.00470        0.08040
C          4.94300        2.15570        0.44010
C          6.42950        2.42350        0.40000
O          7.14070        1.47040       -0.36410
H          0.71360       -1.34750        0.19060
H          0.51020        0.42010        0.12460
H          1.19950       -0.32330        1.56190
H          2.50930       -0.28910       -1.21230
H          3.18990       -1.06120        0.24690
H          4.29880        2.96130        0.83530
H          6.80680        2.41910        1.42670
H          6.59670        3.41690       -0.02530
H          6.61630        0.64590       -0.31680
