18
qm7 5321 -1715.32
C          4.58380       -1.10250        0.14020
O          3.33700       -0.41970        0.20160
C          3.37350        0.94620        0.22040
C          4.43650        1.76320        0.19720
C          4.32660        3.26380        0.22030
C          4.93100        3.88590       -1.04360
N          4.86180        5.34470       -0.99960
H          4.37940       -2.17750        0.12290
H          5.19180       -0.88850        1.02570
H          5.12530       -0.84760       -0.77640
H          2.35440        1.31940        0.25850
H          5.44680        1.36690        0.17090
H          4.85410        3.63440        1.10790
H          3.27850        3.57370        0.32110
H          4.40070        3.52730       -1.93350
H          5.98080        3.58770       -1.14460
H          3.88630        5.63940       -0.96930
H          5.24520        5.72460       -1.86440
