19
qm7 2286 -1847.74
C          0.88480        0.02840       -0.23740
C          2.37130        0.03010        0.01900
C          2.73530       -0.03190        1.47950
C          3.26310       -0.69390       -0.97020
C          3.24120        0.81440       -0.95440
C          4.44460        1.58770       -0.53050
O          5.27670        1.79240       -1.66370
H          0.65240        0.07150       -1.30700
H          0.41650        0.89280        0.24360
H          0.42940       -0.88150        0.16710
H          3.80200       -0.21520        1.64000
H          2.19010       -0.84340        1.97390
H          2.47160        0.90830        1.97490
H          2.80160       -1.19640       -1.81420
H          4.14220       -1.20710       -0.59480
H          2.73760        1.31860       -1.77480
H          5.03620        1.07910        0.23490
H          4.14790        2.56700       -0.14350
H          5.47700        0.91130       -2.02300
