17
qm7 1439 -1629.46
C          1.15350        0.32700       -0.66750
C          2.49170       -0.11900       -0.13460
C          2.72650       -1.60840       -0.01990
N          3.35420        0.79920        0.19090
N          4.52660        0.33130        0.65940
C          5.55790        1.28400        0.24580
C          5.01010        1.30620        1.63810
H          1.09500        1.41800       -0.70580
H          0.36150       -0.05120       -0.01580
H          1.01440       -0.07440       -1.67480
H          1.84480       -2.15820       -0.36090
H          2.91970       -1.87470        1.02300
H          3.57840       -1.89930       -0.64080
H          5.27980        2.07730       -0.43720
H          6.54220        0.86300        0.08940
H          5.61990        0.90030        2.43440
H          4.35000        2.11490        1.92660
