10
qm7 185 -1063.44
N          0.99440        0.07260       -0.18690
C          2.15000        0.03090       -0.10010
C          3.58140       -0.02060        0.00570
C          4.37460       -0.75290       -1.04850
C          4.42390        0.74640       -0.98360
H          3.95720       -0.07700        1.02290
H          3.84650       -1.20710       -1.88050
H          5.25100       -1.30530       -0.73030
H          5.33360        1.21080       -0.62160
H          3.92910        1.30430       -1.77180
