18
qm7 1279 -1761.37
C          1.37370       -0.16950        0.99710
C          2.52000        0.00000        0.00000
C          2.14330       -0.46900       -1.41800
C          0.96230        0.27580       -2.04810
N          0.70250       -0.23970       -3.39060
C          3.00200        1.36120        0.00000
C          3.39930        2.48310        0.00000
H          1.71640        0.03660        2.01810
H          0.98590       -1.19350        0.97660
H          0.54430        0.51660        0.79310
H          3.33760       -0.65050        0.33870
H          1.90910       -1.54220       -1.38000
H          3.02220       -0.36860       -2.07080
H          1.16730        1.34910       -2.11340
H          0.05750        0.14140       -1.44830
H          1.52040       -0.08230       -3.97920
H         -0.05590        0.29490       -3.81310
H          3.75690        3.48710        0.00250
