14
qm7 403 -1370.83
C          0.68480        0.09430        0.03860
C          2.16650       -0.09000        0.10110
C          3.04660        0.91430       -0.00110
N          4.41190        0.80290        0.05020
C          5.37540        1.76590       -0.04750
N          5.25790        3.03380       -0.21960
H          0.27330       -0.47730       -0.79900
H          0.40220        1.14370       -0.09240
H          0.22510       -0.26970        0.96260
H          2.51560       -1.10990        0.23790
H          2.68930        1.93170       -0.13820
H          4.74740       -0.14640        0.18210
H          6.38980        1.34020        0.04040
H          4.26980        3.28240       -0.28440
