13
qm7 2235 -1374.43
C          0.72670       -1.24080        0.49440
O         -0.63610       -1.55680        0.13160
C         -1.53830       -0.54270       -0.01250
C         -1.23890        0.75920       -0.04210
C          0.13130        1.24330        0.04750
O          1.15130        0.79520       -0.86280
C          1.13270        0.19770        0.43990
H          1.38520       -1.84120       -0.14380
H          0.85920       -1.60280        1.52130
H         -2.54140       -0.93010       -0.13600
H         -2.03200        1.48780       -0.17850
H          0.24680        2.23700        0.46320
H          1.94300        0.44460        1.10960
