18
qm7 5248 -1780.81
C          0.81860        0.05250       -0.02840
C          2.29010       -0.08010        0.14560
C          3.14820       -0.99870       -0.68510
C          2.71900       -1.56370       -2.00150
C          2.97000       -0.42230       -2.97010
C          2.84880        0.84080       -2.12340
N          3.28590        0.48020       -0.76470
H          0.49580        1.05790        0.26260
H          0.30660       -0.66220        0.62510
H          0.46810       -0.13330       -1.04700
H          2.55100        0.01150        1.19620
H          3.97800       -1.51830       -0.22430
H          3.30320       -2.44790       -2.27440
H          1.66370       -1.85220       -1.98620
H          3.99030       -0.49930       -3.36770
H          2.27730       -0.43290       -3.81700
H          3.50320        1.62190       -2.52440
H          1.83230        1.24580       -2.14520
