15
qm7 1639 -1515.88
C          1.02900       -0.00180        0.14350
N          2.47570        0.02450       -0.04460
C          3.10630        1.03170        0.83730
C          4.16710       -0.02180        1.22470
C          3.13010       -1.05360        0.72950
C          5.40930        0.03070        0.48440
N          6.42580        0.07140       -0.07530
H          0.60110       -0.86360       -0.37990
H          0.58070        0.89810       -0.29110
H          0.72330       -0.05840        1.19510
H          2.50160        1.36740        1.69040
H          3.47440        1.92060        0.31420
H          4.34400       -0.07580        2.30590
H          3.51780       -1.87530        0.11780
H          2.53420       -1.48940        1.54260
