14
qm7 729 -1390.28
C          0.68780       -0.68320       -0.30460
C          2.09000       -0.18570        0.00790
C          2.16180        1.33880       -0.01820
C          3.55220        1.84420        0.29090
O          3.62760        3.19500        0.24500
O          4.51760        1.14640        0.55780
H          0.65990       -1.77720       -0.28210
H          0.36780       -0.35560       -1.29890
H         -0.03340       -0.30980        0.42940
H          2.79350       -0.60600       -0.72050
H          2.39440       -0.55840        0.99310
H          1.47430        1.75490        0.72620
H          1.87840        1.70420       -1.01170
H          2.78210        3.62760        0.02100
