16
qm7 5477 -1580.26
N          0.77190        0.03190       -0.07590
C          2.20880        0.00590        0.19000
C          3.10760       -0.90220       -0.60860
C          2.68990       -1.46160       -1.93220
C          2.93340       -0.31230       -2.90640
O          2.80760        0.89830       -2.13740
C          3.20360        0.58610       -0.77670
H          0.39310        0.96090        0.09930
H          0.27540       -0.60910        0.53850
H          2.46370        0.12840        1.24150
H          3.92310       -1.42300       -0.13090
H          3.25990       -2.35170       -2.21500
H          1.62880       -1.73730       -1.92220
H          3.95350       -0.34870       -3.30490
H          2.22570       -0.30810       -3.73970
H          4.06970        1.09730       -0.37350
