16
qm7 5062 -1593.4
C          1.02840        0.01340        0.01300
N          2.46540       -0.16650        0.23380
C          2.93320       -1.54930        0.10370
C          3.36570        0.88990        0.16040
C          3.11690        2.20200        0.07570
C          4.23390        3.16220        0.01460
O          4.03600        4.36830       -0.07390
H          0.64240        0.85430        0.59850
H          0.46240       -0.87250        0.32100
H          0.82780        0.19650       -1.04780
H          2.22550       -2.25120        0.55720
H          3.89450       -1.68920        0.61040
H          3.05410       -1.80840       -0.95320
H          4.39790        0.54130        0.18770
H          2.12150        2.62290        0.04900
H          5.25050        2.73720        0.05050
