15
qm7 4181 -1466.69
C          1.02920       -0.06710       -0.14820
C          2.48620        0.13360        0.06510
O          3.32020       -0.47180       -0.92670
C          3.30570        0.97180       -0.88380
C          4.56540        1.58810       -0.42440
N          4.48110        2.84170        0.07930
N          5.67910        0.94830       -0.49890
H          0.46250        0.70330        0.38350
H          0.72250       -1.04400        0.23810
H          0.75790       -0.01930       -1.20790
H          2.78640        0.05000        1.10100
H          2.80890        1.47540       -1.70410
H          3.62620        3.09930        0.55460
H          5.32460        3.10980        0.57630
H          5.49230        0.01830       -0.90180
