16
qm7 4660 -1584.2
C          2.37760       -0.43970       -1.42890
C          2.39550        0.18470       -0.03910
N          3.30800        1.33290        0.00700
C          2.69670        2.52860       -0.61150
C          2.95250        3.24520        0.71960
O          2.84080        4.38770        1.11320
C          3.33570        1.90950        1.36750
H          1.73530       -1.32630       -1.43300
H          3.38210       -0.75190       -1.73420
H          1.99130        0.25700       -2.17990
H          2.74860       -0.57810        0.66600
H          1.37370        0.44990        0.26190
H          1.63390        2.47380       -0.86810
H          3.26270        2.93860       -1.45150
H          4.32350        1.91030        1.83480
H          2.58560        1.54780        2.07820
