11
qm7 4118 -1231.3
C          1.07240       -0.00380       -0.10450
C          2.38750       -0.05210        0.10240
N          3.13380       -1.19260        0.29900
C          4.33730       -0.74780        0.45100
N          4.49160        0.58980        0.37780
C          3.27310        1.14590        0.15280
O          2.98540        2.31780        0.02680
H          0.56320        0.94250       -0.25150
H          0.48640       -0.91500       -0.12980
H          5.23270       -1.35810        0.63220
H          5.33990        1.12210        0.46960
