9
qm7 123 -994.68
C          1.00000        0.00000        0.00000
C          2.19020        0.00000        0.00000
C          3.63420        0.00000        0.00000
C          4.11620        1.36120        0.00000
C          4.51350        2.48310        0.00000
H         -0.06510        0.00580        0.00000
H          4.01200       -0.53460       -0.87850
H          4.01200       -0.53460        0.87850
H          4.86350        3.48900        0.00000
