15
qm7 5002 -1477.49
C          1.13190       -0.01920        0.16220
N          2.56640       -0.02960       -0.00050
N          3.27660        1.17620       -0.14880
C          4.50500        0.79220       -0.85640
C          4.70560       -0.68950       -0.57980
C          3.30400       -1.15750       -0.33340
O          2.92600       -2.31580       -0.37360
H          0.75300       -1.03840        0.27720
H          0.67730        0.43150       -0.72500
H          0.87640        0.56830        1.04850
H          3.52320        1.49610        0.79200
H          4.36130        0.95940       -1.93050
H          5.36320        1.39100       -0.53710
H          5.14520       -1.20620       -1.43610
H          5.29970       -0.86010        0.32320
