14
qm7 4504 -1423.95
C          0.97640        0.10940       -0.12570
C          2.44710       -0.10120        0.04640
C          3.09580       -1.27660        0.01110
N          2.59220       -2.52980       -0.23170
C          3.22240        1.13220        0.32170
O          4.31690        1.25090       -0.45920
O          2.87000        1.98160        1.12110
H          0.78810        0.86170       -0.89920
H          0.52700        0.45720        0.81040
H          0.45350       -0.80240       -0.42740
H          4.17010       -1.31700        0.19760
H          1.58570       -2.61930       -0.11000
H          3.09880       -3.27980        0.23720
H          4.37490        0.56510       -1.15180
