15
qm7 4305 -1497.58
C          0.86680       -1.17020        0.85620
C          1.19580       -0.32720       -0.35470
C          1.01340        1.14420       -0.44010
C         -0.20330        1.61120        0.31450
C         -1.30370        0.61290        0.15680
N         -1.15870       -0.64830       -0.11130
N          0.04610       -1.21830       -0.35870
H          1.46290       -2.05670        1.03630
H          0.45520       -0.72010        1.74930
H          2.02940       -0.65520       -0.96680
H          1.90600        1.65830       -0.06750
H          0.91160        1.41760       -1.49790
H          0.00070        1.71100        1.38630
H         -0.54190        2.58660       -0.04810
H         -2.32570        0.97330        0.36110
