17
qm7 4721 -1625.46
C          0.91870       -0.04070       -0.04790
C          2.44010        0.01090        0.04640
N          3.05340       -0.74120       -1.06690
C          2.94410        1.46800        0.06270
N          4.39280        1.51180        0.06270
C          5.09050        2.62020        0.45050
O          4.60390        3.64790        0.89900
H          0.46380        0.49330        0.79240
H          0.55910       -1.07460       -0.01860
H          0.55750        0.41800       -0.97450
H          2.75520       -0.47580        0.97760
H          2.73330       -0.34750       -1.95300
H          2.70170       -1.69990       -1.05150
H          2.56650        1.99980        0.94260
H          2.60580        2.01010       -0.82810
H          4.86650        0.75280       -0.41580
H          6.17710        2.48920        0.31780
