15
qm7 6456 -1573.55
C          0.87360        0.10330       -0.00970
C          2.36250        0.03800       -0.00030
C          3.26860        1.07870        0.00840
C          4.63010        0.63330        0.01580
C          5.81990        1.53200        0.02610
C          4.69230       -0.74690        0.01250
S          3.14930       -1.47960        0.00040
H          0.52850        1.14160       -0.00200
H          0.45780       -0.39460        0.87180
H          0.47030       -0.37730       -0.90660
H          2.96940        2.12040        0.00950
H          5.52300        2.58520        0.01130
H          6.44750        1.34390       -0.85080
H          6.41890        1.36050        0.92610
H          5.57810       -1.36770        0.01660
