9
qm7 6 -796.98
C          0.98270       -0.00180        0.00460
O          2.40330        0.02360        0.00000
C          2.90150        1.35430       -0.00460
H          0.65650       -1.04550        0.00310
H          0.58760        0.48890       -0.89020
H          0.59360        0.48470        0.90440
H          3.99420        1.31340       -0.00310
H          2.57080        1.89050        0.89020
H          2.57280        1.88340       -0.90440
