17
qm7 4405 -1603.13
C         -1.64960        0.60440        0.28700
N         -1.62310       -0.82400       -0.33190
C         -0.21900       -0.80050        0.14740
C          1.06490       -1.08060       -0.57080
C          1.92200        0.08640        0.00790
N          0.95360        1.14310        0.45040
C         -0.23480        0.70870       -0.26870
H         -2.39450        1.26180       -0.17000
H         -1.76910        0.61960        1.37760
H         -1.71640       -0.82630       -1.34910
H         -0.14820       -1.04440        1.22070
H          1.49100       -2.05390       -0.31050
H          0.97830       -1.01310       -1.66230
H          2.50910       -0.24890        0.86980
H          2.60830        0.47800       -0.75060
H          0.86210        1.09650        1.46630
H         -0.21730        0.95410       -1.34380
