15
qm7 3164 -1615.69
C          1.00000        0.00000        0.00000
C          2.44400        0.00000        0.00000
C          3.63420        0.00000        0.00000
C          5.04010        0.00000        0.00000
C          5.68550       -1.13190       -0.32270
C          5.78920        1.19880        0.34180
C          5.27160        2.38880        0.68110
H          0.60620        1.02090        0.01320
H          0.60600       -0.52170        0.87750
H          0.60600       -0.49900       -0.89070
H          5.14180       -2.03640       -0.58060
H          6.76820       -1.19350       -0.34030
H          6.87450        1.11320        0.31730
H          4.20190        2.56640        0.73180
H          5.92310        3.22400        0.91920
