13
qm7 2615 -1458.47
C          2.63950       -1.18300        0.37840
C          2.20650        0.06620        0.16210
C          3.02540        1.22810        0.07330
C          2.54780        2.50130       -0.15000
O          3.57010        3.39630       -0.18240
C          4.71320        2.69270        0.02160
C          4.43370        1.35510        0.18460
H          1.93480       -2.00710        0.42990
H          3.68930       -1.42180        0.50870
H          1.13300        0.20820        0.04330
H          1.56230        2.92000       -0.29940
H          5.62520        3.27340        0.02330
H          5.16250        0.57740        0.36100
