20
qm7 1703 -1910.69
C          1.11960        0.39630        0.94920
N          2.57410        0.43290        0.89450
C          3.03640        1.47550       -0.01610
C          4.53350        1.45750        0.00640
C          5.31560        0.63700       -0.99220
C          5.31290        2.14060       -1.09140
C          6.53800        2.92130       -0.75500
H          0.80190       -0.36790        1.66430
H          0.68830        0.14760       -0.02510
H          0.71120        1.35340        1.28820
H          2.92370       -0.46760        0.56900
H          2.69020        2.46000        0.31910
H          2.65620        1.30400       -1.03050
H          4.92200        1.53910        1.01690
H          4.77330        0.08090       -1.74850
H          6.21250        0.13940       -0.64080
H          4.76350        2.59240       -1.91000
H          7.11800        2.45250        0.04760
H          6.26330        3.92970       -0.43090
H          7.18310        3.00850       -1.63420
