11
qm7 2037 -1211.76
N          0.84300        0.01300       -0.07900
C          2.00240        0.00540       -0.06040
C          3.53580       -0.01210       -0.02680
C          4.73600       -0.02430       -0.00190
C          6.16650       -0.03130        0.02550
C          6.91580       -0.77670       -1.04980
N          6.87030        0.67930       -1.03910
H          6.62690        0.01920        1.00740
H          6.35910       -1.26060       -1.84320
H          7.86250       -1.23720       -0.79810
H          7.74450        1.07400       -0.68970
