14
qm7 499 -1369.95
C          1.45040       -0.37130       -0.11670
N          2.88910       -0.13060       -0.13360
C          3.18210        1.30120        0.00570
C          4.69220        1.54190        0.07140
C          4.97780        2.97510        0.20090
N          5.19940        4.11100        0.29600
H          1.26000       -1.44420       -0.21850
H          0.94870        0.14060       -0.94420
H          1.00590       -0.04640        0.82950
H          3.26960       -0.47950       -1.01420
H          2.71640        1.68810        0.92120
H          2.75350        1.85380       -0.84030
H          5.17500        1.15380       -0.83350
H          5.12180        1.00280        0.92410
