17
qm7 1211 -1672.11
C          3.30060       -0.94160        1.94270
C          3.36160       -0.79720        0.44690
C          3.19180       -1.85280       -0.36770
C          3.57690        0.59940       -0.08760
C          5.02050        1.03660        0.13530
N          5.97970        0.67230       -0.76100
N          5.37750        1.72330        1.17260
H          4.26380       -0.68900        2.39560
H          3.04940       -1.96330        2.24600
H          2.53500       -0.27760        2.35660
H          3.02030       -2.85110        0.02590
H          3.21340       -1.75050       -1.44860
H          2.89520        1.30340        0.40210
H          3.36850        0.64730       -1.16330
H          5.84160       -0.22160       -1.21690
H          6.91210        0.79280       -0.37970
H          4.56470        1.91730        1.76660
