16
qm7 4131 -1517.83
C          0.92810        0.09560       -0.05230
C          2.42830       -0.02640        0.05820
N          2.95740       -0.00030        1.45210
C          3.18260       -0.82850       -0.98860
O          2.40060       -1.42970       -2.03590
C          3.26110        0.67250       -1.00310
O          4.49010        1.24950       -0.52170
H          0.59200        0.20000       -1.09050
H          0.57550        0.97570        0.49770
H          0.44460       -0.79180        0.37090
H          3.83630       -0.51730        1.50000
H          2.32280       -0.51570        2.06460
H          4.07500       -1.36320       -0.68050
H          2.84500       -1.32550       -2.89480
H          2.74350        1.19870       -1.79790
H          4.37430        1.46850        0.42390
