16
qm7 1245 -1606.14
C          1.38680       -0.66180       -0.86040
C          2.56750       -0.44700       -0.80380
C          4.01560       -0.18430       -0.74100
C          4.45250        0.17570        0.68330
N          5.89980        0.43350        0.71530
C          6.24640        1.85090        0.77670
C          6.35280        0.97160        1.99510
H          0.34010       -0.85390       -0.91390
H          4.26420        0.63340       -1.42820
H          4.56030       -1.07180       -1.08560
H          4.23200       -0.66790        1.35050
H          3.85810        1.02420        1.05080
H          5.45530        2.58970        0.73800
H          7.16350        2.13410        0.27420
H          7.33970        0.65850        2.31240
H          5.62890        1.09500        2.79100
