15
qm7 3287 -1597
C          1.00000        0.00000        0.00000
C          2.44400        0.00000        0.00000
C          3.63420        0.00000        0.00000
C          5.07810        0.00000        0.00000
C          5.58550        1.43280        0.00000
C          7.02960        1.43280       -0.00000
C          8.21970        1.43280       -0.00000
H          0.60600        1.02090        0.01170
H          0.60590       -0.52050        0.87830
H          0.60590       -0.50030       -0.88990
H          5.45370       -0.53800       -0.87940
H          5.45370       -0.53800        0.87940
H          5.20970        1.97070        0.87940
H          5.20970        1.97070       -0.87940
H          9.28440        1.43490        0.00000
