17
qm7 2705 -1696.92
C          0.82840        0.33770        0.47250
C          2.28030        0.04910        0.23650
C          2.76440       -1.20400        0.23010
C          3.24500        1.17020        0.01670
C          2.72320        2.59730       -0.21300
O          3.62530        3.12310        0.79630
C          3.86660        1.77770        1.28390
H          0.70290        0.98910        1.34330
H          0.25550       -0.57660        0.66190
H          0.38750        0.82600       -0.40220
H          2.11740       -2.06250        0.38940
H          3.81760       -1.41410        0.06540
H          4.00460        0.90940       -0.73400
H          1.68610        2.82250        0.05010
H          2.94040        3.01220       -1.20200
H          4.93370        1.57940        1.41870
H          3.33800        1.60460        2.22730
