13
qm7 4384 -1316.78
C          1.05240       -0.02900       -0.01070
C          2.55850        0.08480        0.01160
C          3.35140       -1.20300       -0.02780
C          3.51900       -1.64650       -1.41280
N          3.63250       -2.02730       -2.50250
N          3.07460        1.27860        0.03380
O          4.47110        1.23640        0.01660
H          0.58870        0.95930        0.05250
H          0.72160       -0.63180        0.83930
H          0.73630       -0.51200       -0.93920
H          2.80490       -1.96100        0.54440
H          4.32090       -1.08170        0.46350
H          4.71040        2.18320       -0.01510
