15
qm7 4631 -1477.12
C          1.14780       -0.37170        0.38140
C          2.20790       -0.17970       -0.69210
C          2.30580       -1.43840       -1.53190
O          3.30670       -2.15090       -1.56770
N          1.78510        0.92480       -1.56960
C          2.75860        1.53490       -2.13820
N          2.56950        2.57210       -2.98940
H          1.05430        0.52820        0.99840
H          1.40190       -1.21280        1.03510
H          0.16500       -0.57760       -0.05790
H          3.17730        0.01470       -0.21670
H          1.40280       -1.70100       -2.11020
H          3.82490        1.27600       -2.00060
H          1.62670        2.94670       -2.97340
H          3.29690        3.27470       -3.04000
