14
qm7 5965 -1458.51
O          0.92210       -0.00850        0.10950
C          2.35480        0.00600        0.01530
C          3.07130        1.05460        0.89510
C          4.13770       -0.01310        1.23480
C          3.09620       -1.08170        0.82390
C          5.33780        0.02550        0.42060
N          6.28870        0.05100       -0.24170
H          0.63520       -0.74620       -0.45680
H          2.67230        0.05020       -1.03430
H          2.48550        1.38090        1.76320
H          3.42380        1.94500        0.36530
H          4.37990       -0.04570        2.30390
H          3.46880       -1.92650        0.23630
H          2.51860       -1.47850        1.66780
