16
qm7 3995 -1587.82
C          1.06810        0.07470        0.06890
C          2.39830        0.01380       -0.06020
C          3.18870       -1.27620       -0.07550
N          4.16670       -1.32550       -1.16890
C          4.96040       -0.08970       -1.15470
C          4.04580        1.13740       -1.23900
O          3.12600        1.19510       -0.13800
H          0.56100        1.03340        0.09130
H          0.46210       -0.82060        0.14750
H          2.51980       -2.13870       -0.17110
H          3.70850       -1.37980        0.88540
H          4.78040       -2.12520       -1.02650
H          5.55950       -0.05010       -0.23690
H          5.64950       -0.09480       -2.00540
H          4.65190        2.04880       -1.20400
H          3.48340        1.15430       -2.18160
