16
qm7 3827 -1563.58
C          1.70310       -0.11550       -0.12880
C          0.86400       -1.19030        0.56420
C         -0.42210       -1.51410       -0.17660
C         -1.48110       -0.43650       -0.25430
N         -1.38880        0.84040       -0.02400
O         -0.14370        1.27420        0.45780
C          0.88610        1.10870       -0.51480
H          2.20370       -0.51940       -1.01640
H          2.49830        0.18590        0.56470
H          1.46870       -2.10030        0.65570
H          0.62890       -0.87280        1.58770
H         -0.89970       -2.37390        0.30790
H         -0.20190       -1.82280       -1.20510
H         -2.46320       -0.78260       -0.62040
H          1.51700        2.00340       -0.50990
H          0.47160        1.01130       -1.52610
