15
qm7 2201 -1490.43
C          0.85000        0.90100       -0.78560
O         -0.03940        1.04030        0.32720
C          0.63920       -0.22030        0.19360
C          1.55980       -0.54440        1.33550
C          1.06710       -0.36270        2.77880
C          1.57630       -1.78030        2.99560
O          1.78890       -1.96540        1.57650
H          0.40910        0.81190       -1.77080
H          1.77840        1.45590       -0.75430
H          0.04700       -1.08020       -0.09500
H          2.53340       -0.05960        1.17480
H         -0.01570       -0.25130        2.89290
H          1.58210        0.41300        3.35060
H          2.51420       -1.86390        3.55150
H          0.84040       -2.48350        3.39340
