14
qm7 569 -1335.94
N          0.95300       -0.05130        0.21660
C          2.40900       -0.01430       -0.02340
C          2.97740        1.43280        0.00000
N          2.46950        2.16150        1.17070
C          4.42140        1.43280        0.00000
C          5.61140        1.43280        0.00000
H          0.63460       -1.01910        0.15220
H          0.47990        0.45010       -0.53720
H          2.62850       -0.48500       -0.98870
H          2.89100       -0.62220        0.75120
H          2.60970        1.95670       -0.89060
H          2.88600        1.74490        2.00280
H          1.48010        1.90210        1.24610
H          6.67720        1.44480        0.00500
