13
qm7 3875 -1300.46
C         -0.46270        1.38250       -0.21000
O         -1.55290        0.47980       -0.11220
C         -1.22580       -0.84670       -0.50680
C         -0.23350       -1.38380        0.47950
N          1.01070       -1.02280        0.56610
N          1.52830       -0.17460       -0.41110
C          0.89790        0.92150       -0.71130
H         -0.32170        1.87410        0.75670
H         -0.78530        2.16490       -0.90430
H         -0.85080       -0.87300       -1.53220
H         -2.13370       -1.45360       -0.45290
H         -0.61930       -2.08040        1.24170
H          1.40790        1.61430       -1.39950
