13
qm7 2497 -1407.25
C          0.92790        0.03800       -0.00810
C          2.40760       -0.02600       -0.00070
C          3.29320        1.03350        0.00300
O          4.57690        0.59150        0.00960
C          4.52270       -0.76120        0.01010
O          5.70080       -1.35420        0.01630
C          3.21950       -1.19680        0.00380
H          0.57320        1.07380        0.00180
H          0.51910       -0.46910        0.87170
H          0.52910       -0.44890       -0.90380
H          3.17500        2.10830        0.00180
H          5.52780       -2.30950        0.01600
H          2.88590       -2.22420        0.00270
