11
qm7 2069 -1264.86
N          2.52780       -0.68660        2.56310
C          2.97620       -0.41100        1.52800
C          3.54230       -0.06870        0.21380
C          4.09200        1.33090        0.21940
C          5.38170        1.63650        0.00000
C          5.85110        2.96180        0.00000
N          6.23530        4.04680        0.00000
H          2.76390       -0.13810       -0.55390
H          4.31810       -0.79450       -0.05120
H          3.37290        2.13080        0.40440
H          6.11620        0.86030       -0.18860
