13
qm7 2363 -1417.93
C          1.05610        0.05620       -0.01980
C          2.53800       -0.04520       -0.07880
C          3.28260       -1.14200       -0.01600
C          4.70460       -0.75810       -0.12050
C          4.56340        0.74020       -0.25650
O          5.50500        1.51390       -0.38070
O          3.24830        1.14400       -0.22430
H          0.58650       -0.93180        0.02400
H          0.67440        0.57230       -0.90630
H          0.74900        0.61860        0.86710
H          2.91910       -2.15280        0.09380
H          5.25710       -1.00790        0.78780
H          5.17090       -1.18000       -1.01350
