15
qm7 3717 -1546.37
O          0.53430       -0.05850       -0.10540
C          1.91490       -0.33930        0.12820
C          2.55300       -0.88390       -1.16060
C          2.01220       -2.23910       -1.54340
C          2.75800       -3.34290       -1.67800
C          2.57950        0.90000        0.56330
C          3.11420        1.91660        0.92020
H          0.20340        0.37920        0.69700
H          1.97280       -1.09040        0.92470
H          3.64320       -0.93520       -1.04410
H          2.35070       -0.19880       -1.99430
H          0.94020       -2.29460       -1.72830
H          3.83080       -3.33420       -1.51300
H          2.30260       -4.28620       -1.96480
H          3.58590        2.82010        1.22990
