18
qm7 4192 -1735.08
C          1.04280        0.04150        0.00190
C          2.55960       -0.01430        0.03280
O          3.07350        1.04480        0.85070
C          4.39680        0.64960        1.22370
C          4.38470       -0.86230        1.35390
C          3.11630       -1.30900        0.64050
N          3.36850       -2.37960       -0.32270
H          0.62510       -0.76570       -0.60760
H          0.70590        1.00030       -0.40590
H          0.62760       -0.02930        1.01280
H          2.94790        0.14030       -0.98250
H          5.08440        0.96680        0.43140
H          4.68510        1.15090        2.15260
H          5.30760       -1.29660        0.95460
H          4.33550       -1.15090        2.40950
H          2.41980       -1.69610        1.39500
H          4.03020       -2.06250       -1.03020
H          2.50880       -2.60280       -0.82190
