17
qm7 2446 -1642.5
C          1.04850        0.06730       -0.11780
C          2.53580        0.02050       -0.04610
C          3.38560       -0.68940       -1.07300
O          2.72860       -1.27230       -2.20890
C          3.43590        0.82240       -0.96270
C          2.91230        1.70530       -2.05070
O          4.59680        1.38370       -0.31930
H          0.66750        0.81630        0.58430
H          0.63170       -0.90350        0.16970
H          0.66160        0.31790       -1.10830
H          2.84870       -0.08520        0.98890
H          4.24520       -1.23860       -0.69990
H          1.88450       -0.84760       -2.42920
H          2.04340        1.29360       -2.56960
H          3.69240        1.87370       -2.80050
H          2.62510        2.67800       -1.63840
H          5.09610        0.72390        0.19020
