15
qm7 2305 -1602.05
C          1.04030       -0.02480        0.15680
C          2.36600        0.04140        0.00200
C          3.25420        1.24150        0.00470
C          4.43370        0.79810       -0.85860
C          4.62790       -0.69340       -0.58370
C          3.22600       -1.14190       -0.28550
O          2.84780       -2.30130       -0.24230
H          0.52040       -0.97730        0.10620
H          0.44780        0.86480        0.33940
H          3.58880        1.45700        1.02640
H          2.77050        2.13260       -0.40710
H          4.19230        0.94830       -1.91900
H          5.33940        1.37320       -0.64400
H          5.03300       -1.21100       -1.45650
H          5.25630       -0.86350        0.29570
