18
qm7 5751 -1723.31
N          2.20170       -0.89160        1.30360
C          2.16330       -0.32310       -0.04440
C          3.08680        0.89340       -0.18100
C          4.57920        0.60560        0.05700
O          4.78870        0.16680        1.39500
C          5.15700       -0.37900       -0.92780
C          5.73420       -1.55370       -0.63560
H          1.58870       -1.70840        1.33300
H          1.79270       -0.22300        1.96010
H          1.13470       -0.02210       -0.27180
H          2.43900       -1.09560       -0.76950
H          2.75900        1.65820        0.53600
H          2.95470        1.32070       -1.18320
H          5.13250        1.54550       -0.05240
H          4.06590       -0.47370        1.57440
H          5.10280       -0.08190       -1.97230
H          5.83310       -1.89820        0.38950
H          6.13050       -2.19140       -1.41790
