17
qm7 2818 -1701.24
C          1.00000        0.00000        0.00000
C          2.44400        0.00000        0.00000
C          3.63420        0.00000        0.00000
C          5.07810        0.00000        0.00000
C          5.62250       -0.65830        1.26640
C          5.62250       -0.70340       -1.24280
O          5.54790        1.34830       -0.01630
H          0.60600        1.02090        0.01170
H          0.60600       -0.52060        0.87830
H          0.60600       -0.50030       -0.88990
H          5.27820       -0.12940        2.16340
H          6.71740       -0.62200        1.28700
H          5.30820       -1.70470        1.34900
H          5.27620       -0.20940       -2.15900
H          5.31080       -1.75310       -1.28650
H          6.71790       -0.66490       -1.26600
H          5.06060        1.80650       -0.72230
