15
qm7 965 -1422.13
C          0.98140        0.05020       -0.11010
C          2.46890        0.06730        0.02000
O          2.93730        0.15870        1.38040
C          3.32250       -0.72270       -0.93540
C          3.30950        0.77830       -1.01310
N          4.50250        1.52840       -0.59270
H          0.66310        0.01510       -1.15660
H          0.54960        0.94760        0.34430
H          0.56530       -0.82580        0.39880
H          3.59040       -0.53430        1.57790
H          2.83450       -1.26540       -1.73540
H          4.21510       -1.21090       -0.56720
H          2.79300        1.21310       -1.86490
H          4.89090        1.10750        0.25310
H          4.21720        2.46090       -0.29040
