17
qm7 261 -1621.18
C          0.93790       -0.03220        0.15210
C          2.44820        0.04040       -0.02800
C          2.86320        0.01350       -1.49700
C          3.15660        1.10390        0.84810
C          4.14610       -0.01540        1.20370
N          3.13580       -1.00230        0.77610
H          0.65290       -0.05710        1.21020
H          0.52470       -0.92800       -0.32450
H          0.45310        0.84080       -0.29850
H          3.95150        0.03610       -1.62240
H          2.45550        0.88180       -2.02650
H          2.49000       -0.88790       -1.99570
H          2.57290        1.46010        1.70550
H          3.58160        1.96610        0.32710
H          5.05610       -0.02150        0.59290
H          4.42830       -0.07750        2.25800
H          3.50600       -1.79060        0.24760
