11
qm7 6246 -1182.59
O          2.00100       -0.58570       -1.04960
C          2.12280        0.14940       -0.07520
C          1.29630       -0.00340        1.10560
N          0.66280       -0.13040        2.07490
C          3.18850        1.18200       -0.01550
C          3.43050        2.07440       -1.20920
N          2.73530        2.58080       -0.03350
H          4.03570        0.95130        0.61990
H          2.82690        1.93000       -2.09830
H          4.43270        2.44510       -1.38570
H          3.35260        3.17830        0.52230
