15
qm7 1265 -1650.42
C          1.01720        0.03460       -0.27610
C          2.32340        0.00760        0.00500
C          3.18880       -1.21190        0.21410
C          4.53200       -0.64090        0.60240
C          5.62300       -1.31810        0.97010
C          4.41600        0.79590        0.52330
C          3.17180        1.16130        0.18690
H          0.45180       -0.88480       -0.38500
H          0.48070        0.96990       -0.39610
H          3.27260       -1.78440       -0.71690
H          2.78650       -1.84760        1.00960
H          5.61770       -2.40270        1.01310
H          6.54220       -0.81010        1.24300
H          5.22800        1.47970        0.72340
H          2.83680        2.18200        0.07600
