19
qm7 370 -1760.25
C          0.99200       -0.09360        0.00490
C          2.51180       -0.04860        0.00970
C          3.03010        1.38980        0.00870
C          4.55970        1.42640        0.00630
N          5.01970        2.81620        0.01260
C          6.47500        2.88570        0.01640
H          0.64340       -1.13130        0.01180
H          0.58810        0.39450       -0.88770
H          0.58170        0.40840        0.88680
H          2.89000       -0.58250       -0.87010
H          2.88400       -0.57750        0.89510
H          2.64550        1.91560        0.89170
H          2.64530        1.91680       -0.87390
H          4.93390        0.91310       -0.88720
H          4.94090        0.89730        0.88800
H          4.65730        3.29040        0.83990
H          6.89470        2.42130       -0.88100
H          6.89780        2.40200        0.90250
H          6.78880        3.93360        0.02260
