13
qm7 5230 -1310.11
C          5.52360       -0.87840       -0.25400
N          5.33040        0.25570       -0.83910
N          4.67390        1.14080        0.00630
C          4.50040        2.28080       -0.57920
C          3.84890        3.41260        0.14540
C          4.87420        4.36090        0.68550
O          4.89790        5.55640        0.40750
H          6.03260       -1.69250       -0.79180
H          5.20100       -1.08520        0.78050
H          4.86380        2.47810       -1.60400
H          3.25650        3.03530        0.98400
H          3.19000        3.94140       -0.54920
H          5.60400        3.92940        1.39270
