17
qm7 2334 -1726.64
C          0.92110       -0.02770       -0.02940
C          2.45410       -0.04280       -0.05590
C          3.00450        0.04810        1.36680
C          3.00040       -1.27910       -0.79970
C          3.40820       -0.68700       -2.09540
C          3.33410        0.63390       -1.99620
O          2.89120        1.13240       -0.79050
H          0.50760       -0.04720       -1.04420
H          0.54990        0.89200        0.43690
H          0.52090       -0.88440        0.52330
H          4.09880        0.10940        1.35890
H          2.70820       -0.81710        1.96770
H          2.64910        0.95740        1.86490
H          2.24570       -2.06240       -0.92190
H          3.87350       -1.71710       -0.30230
H          3.75260       -1.23750       -2.95670
H          3.59690        1.38030       -2.72730
