13
qm7 5450 -1302.65
C          1.79390       -0.64670        0.77830
O          3.06810       -0.30610        0.24310
N          3.27330        1.06940        0.42400
C          4.44370        1.37400       -0.03450
C          4.94240        2.78520        0.00860
C          6.19300        2.84210        0.76460
N          7.19580        2.88870        1.34600
H          1.63620       -1.71950        0.63930
H          1.00430       -0.10230        0.25110
H          1.75960       -0.42030        1.84840
H          5.10540        0.61460       -0.49010
H          4.18510        3.43610        0.45690
H          5.10900        3.11200       -1.02270
