13
qm7 6521 -1318.58
C          0.95260       -0.12060        0.00710
C          2.46280        0.06220        0.00550
C          2.86040        1.50060       -0.00210
N          3.02190        2.13280       -1.17160
S          3.45640        3.69920       -0.76610
N          3.44360        3.58350        0.90500
C          3.09850        2.31870        1.15020
H          0.69930       -1.18510        0.01680
H          0.49900        0.32960       -0.88200
H          0.49900        0.34560        0.88790
H          2.88950       -0.44770       -0.86750
H          2.88670       -0.42880        0.89020
H          3.02390        2.00770        2.18290
