15
qm7 6620 -1349.59
C          3.57320        2.10250        2.19460
O          4.19820        1.03390        1.49390
C          4.14680        1.21050        0.06730
S          5.31190        2.37910       -0.65790
C          6.84700        1.94220        0.12030
O          5.43470        2.07360       -2.07130
O          4.96050        3.72040       -0.22880
H          3.55400        1.84520        3.25730
H          2.54310        2.24340        1.85360
H          4.14280        3.02750        2.08280
H          3.13850        1.49070       -0.25690
H          4.38590        0.24020       -0.37930
H          6.76550        2.11830        1.19420
H          7.63290        2.57170       -0.30180
H          7.05920        0.89160       -0.08620
