17
qm7 7141 -1790.97
C          1.00650        0.02610        0.08550
C          2.49410        0.00560        0.01060
C          3.26360       -1.08590       -0.10940
C          4.72020       -0.75240       -0.13820
C          4.74290        0.77560       -0.21960
C          3.32180        1.19400        0.05710
C          2.92570        2.44500        0.31620
H          0.58770       -0.98240       -0.00100
H          0.58700        0.62840       -0.72720
H          0.67060        0.44410        1.03990
H          2.89080       -2.09980       -0.15640
H          5.21020       -1.10980        0.77410
H          5.21910       -1.20330       -1.00150
H          5.03740        1.09300       -1.22720
H          5.45050        1.20000        0.49960
H          3.64010        3.26160        0.33450
H          1.88950        2.68980        0.52280
