17
qm7 4907 -1579.2
C          4.34120       -1.75060        1.39320
C          4.86430       -0.41450        0.90260
O          3.76770        0.51130        0.87170
C          4.06660        1.76500        0.45790
N          5.24430        2.13540        0.08110
N          5.31610        3.43350       -0.30400
C          6.64280        3.89170       -0.69980
H          5.14590       -2.49090        1.43960
H          3.55510       -2.12480        0.72900
H          3.89630       -1.64940        2.38850
H          5.28030       -0.52970       -0.10420
H          5.63790       -0.04860        1.58630
H          3.16810        2.40420        0.48830
H          4.65740        3.64310       -1.05850
H          7.35930        3.75960        0.11740
H          6.60890        4.95640       -0.94910
H          7.00050        3.34250       -1.57660
