16
qm7 5784 -1514.86
N          1.59850        0.13100       -1.36640
C          2.98590        0.10370       -0.86400
C          3.22110        1.26970        0.11490
O          2.24740        1.17390        1.16260
C          4.58050        1.32640        0.73960
C          5.60240        0.21640        0.71200
O          5.66590        1.32100       -0.20180
H          1.46170       -0.67240       -1.98240
H          1.48050        0.95160       -1.96300
H          3.68690        0.13970       -1.70280
H          3.11710       -0.85140       -0.34490
H          3.03930        2.22110       -0.39990
H          1.43750        0.86210        0.70730
H          4.62730        2.04970        1.54490
H          5.34680       -0.75390        0.30970
H          6.33950        0.18430        1.50610
