17
qm7 337 -1624.79
C          0.67390        1.06810        0.83490
C          2.16190        1.04950        0.97000
C          3.00740        1.44080        0.00410
C          4.50630        1.41130        0.13450
C          5.11020        2.81430        0.00770
N          6.56760        2.77410        0.12110
H          0.27620        0.05700        0.96260
H          0.35120        1.44150       -0.14190
H          0.23810        1.70960        1.60680
H          2.55290        0.68800        1.91880
H          2.61380        1.79250       -0.94790
H          4.90750        0.76050       -0.65230
H          4.79980        0.96690        1.09400
H          4.70790        3.47190        0.78690
H          4.84550        3.25220       -0.96140
H          6.82690        2.41460        1.03930
H          6.93280        3.72480        0.07530
