20
qm7 1742 -1916.01
C          0.93820        0.87320       -1.24860
N          2.39190        0.93980       -1.19780
C          2.84210        1.59680        0.02680
C          4.34120        1.62270        0.03710
C          5.16660        2.68850        0.05320
C          4.73400        4.12870        0.04860
C          6.66080        2.49550        0.06920
H          0.62870        0.37630       -2.17320
H          0.48930        1.87190       -1.23740
H          0.53860        0.29120       -0.41210
H          2.72990        1.48000       -1.99400
H          2.50820        1.02790        0.90280
H          2.40810        2.59700        0.10410
H          4.78620        0.62680        0.03990
H          3.65100        4.26140        0.02880
H          5.13950        4.63830       -0.83170
H          5.10950        4.63600        0.94320
H          6.94550        1.43780        0.07290
H          7.09310        2.95820        0.96260
H          7.11210        2.95740       -0.81500
