17
qm7 1411 -1668.68
C          3.46210       -2.09470        0.81230
C          2.94050       -0.80730        0.22900
C          1.64480       -0.74410       -0.12470
N          3.79250        0.26440        0.00980
C          5.11840        0.51110        0.28770
C          5.72570        1.71200       -0.41000
N          5.89720       -0.13410        1.08700
H          4.35630       -2.43090        0.27590
H          2.72870       -2.90640        0.74080
H          3.69580       -1.97100        1.87480
H          0.97290       -1.58500        0.02230
H          1.20930        0.14620       -0.56670
H          3.34470        1.00260       -0.52790
H          5.24550        2.62380       -0.04160
H          5.56010        1.63130       -1.48830
H          6.80100        1.77240       -0.21900
H          5.38380       -0.88620        1.54130
