21
qm7 1545 -1920.21
C          0.70940       -0.40840        0.34530
C          1.96400       -0.18180        1.18630
N          2.74420        1.00400        0.78480
C          1.95640        2.23530        0.92290
C          3.97930        1.13260        1.59330
C          5.02390        0.02480        1.33700
N          6.27230        0.28420        2.06070
H          0.27240       -1.38300        0.58760
H          0.94260       -0.40230       -0.72350
H         -0.05560        0.34770        0.54290
H          2.57720       -1.08050        1.06120
H          1.68390       -0.12680        2.24550
H          1.10530        2.24160        0.23540
H          2.55720        3.11170        0.65420
H          1.58530        2.37420        1.94440
H          3.73650        1.17420        2.66320
H          4.45970        2.08760        1.34080
H          5.24100       -0.04530        0.26560
H          4.64510       -0.94790        1.66690
H          6.68560        1.14910        1.71290
H          6.94020       -0.45420        1.83920
