17
qm7 3201 -1695.1
C          1.39800       -0.71700        0.00470
C          2.89460       -0.44140        0.06330
O          3.55400       -1.27850       -0.88280
C          3.20890        1.02680       -0.23090
C          4.70360        1.32650       -0.09540
C          4.97990        2.74690       -0.36420
C          5.20900        3.90400       -0.58630
H          0.85600       -0.12640        0.74950
H          1.19830       -1.77840        0.18710
H          0.99340       -0.48650       -0.98700
H          3.26940       -0.71180        1.05670
H          3.18200       -1.09010       -1.76210
H          2.63980        1.67010        0.45230
H          2.88800        1.27620       -1.25100
H          5.28050        0.70850       -0.79260
H          5.04260        1.07430        0.91620
H          5.41510        4.93080       -0.78500
