18
qm7 5515 -1772.93
C          0.98370        0.00590       -0.00030
C          2.50190       -0.03340        0.01000
C          3.09230       -1.15090        0.88010
C          3.89390       -0.28150        1.84650
C          4.60190        0.79490        0.97440
C          3.10560        1.16220        0.75340
N          2.95500        0.85260        2.24280
H          0.58020       -0.88410       -0.49340
H          0.62760        0.88890       -0.54110
H          0.56480        0.05030        1.01080
H          2.87950       -0.09160       -1.01780
H          3.73990       -1.81720        0.30140
H          2.33320       -1.74960        1.39410
H          4.45550       -0.75420        2.65200
H          5.16430        0.44170        0.10520
H          5.20720        1.53330        1.51380
H          2.86360        2.17680        0.43570
H          3.38040        1.54940        2.85570
