16
qm7 3819 -1583.2
C         -1.48930        0.77530        0.26430
C         -1.36630       -0.68570       -0.15380
C         -0.01840       -1.22740        0.21250
N          1.06520       -1.10740       -0.76660
C          1.11410       -0.25470        0.41930
C          0.84210        1.22000        0.33480
O         -0.41290        1.53480       -0.28640
H         -2.42560        1.19200       -0.12020
H         -1.49890        0.88530        1.35550
H         -1.51330       -0.77520       -1.23700
H         -2.15240       -1.27430        0.33150
H         -0.05400       -2.14180        0.78970
H          1.71800       -1.88830       -0.68550
H          1.89100       -0.48720        1.13690
H          0.84120        1.65400        1.34140
H          1.63250        1.71710       -0.23640
