12
qm7 6019 -1242.88
O          0.92850       -0.16360       -0.13160
C          2.13690        0.00690       -0.02960
C          2.78890        1.33280        0.20110
C          4.25740        1.18620       -0.11360
O          4.75650        0.09320        0.65680
N          4.30330       -1.15370        0.16950
C          3.04000       -1.18680       -0.11770
H          2.32760        2.09110       -0.43790
H          2.64120        1.59400        1.25430
H          4.80340        2.08790        0.17940
H          4.44490        1.00760       -1.17910
H          2.56100       -2.11310       -0.47030
