13
qm7 1732 -1491.94
C          1.00000        0.00000        0.00000
C          2.19020        0.00000        0.00000
C          3.59620        0.00000        0.00000
C          4.37300        1.09620       -0.00500
C          5.76060        0.69780       -0.00210
C          5.84210       -0.64010        0.00470
C          4.45870       -1.23160        0.00670
H         -0.06510        0.00210       -0.00000
H          4.03840        2.12180       -0.01010
H          6.58980        1.38850       -0.00500
H          6.75340       -1.21830        0.00840
H          4.29490       -1.84390       -0.88630
H          4.29370       -1.83490        0.90560
