15
qm7 5713 -1431.46
N          1.03150        0.10680        0.14690
C          2.46600        0.13810       -0.14180
C          2.72460       -0.54370       -1.45050
C          3.58330       -1.55880       -1.62130
C          2.90430        1.58930       -0.25310
N          3.76850        2.09550        0.57140
O          3.97100        3.44170        0.24270
H          0.87880        0.55400        1.05130
H          0.75550       -0.86640        0.27400
H          3.01480       -0.34060        0.67730
H          2.16960       -0.18010       -2.31390
H          4.16370       -1.96280       -0.79730
H          3.72240       -2.00840       -2.60010
H          2.43950        2.19900       -1.05000
H          4.63640        3.72120        0.89910
