18
qm7 7133 -1801.73
C          0.97370       -0.10080        0.17100
C          2.49660       -0.02890        0.00680
C          2.88470       -0.77220       -1.28090
C          3.02740        1.43280        0.00000
C          2.54930        2.24020        1.21240
C          4.47060        1.46050       -0.03690
N          5.62090        1.48250       -0.06620
H          0.66100        0.25890        1.15580
H          0.62110       -1.13430        0.08390
H          0.46450        0.49550       -0.59280
H          2.94810       -0.57000        0.85000
H          2.48230       -0.26740       -2.16520
H          2.49480       -1.79620       -1.27010
H          3.97140       -0.84330       -1.39350
H          2.64370        1.93550       -0.89770
H          2.80830        1.73990        2.15290
H          1.46530        2.39140        1.19120
H          3.01020        3.23530        1.23000
