12
qm7 4030 -1264.35
C          0.90130       -0.04980        0.00540
C          2.37420        0.02760        0.00240
C          3.16520        1.14690        0.00260
O          2.92970        2.44580        0.00530
O          4.47620        0.80380       -0.00070
N          4.57990       -0.58120       -0.00310
C          3.31840       -1.02330       -0.00120
H          0.55890       -1.08970       -0.00660
H          0.48710        0.45220       -0.87490
H          0.49230        0.43020        0.90030
H          3.81630        2.84760        0.00410
H          3.14390       -2.09070       -0.00250
