13
qm7 1132 -1307.02
O          2.41160       -0.50850       -1.44810
C          2.27280       -0.14910       -0.08190
C          3.07550        1.11800        0.19080
C          4.56290        0.97690       -0.13970
C          5.23000        0.01530        0.74690
N          5.74370       -0.74300        1.46030
H          1.88940       -1.31920       -1.58470
H          2.61190       -0.98310        0.54000
H          1.21250        0.02810        0.12420
H          2.94440        1.41150        1.23930
H          2.67200        1.92850       -0.42890
H          5.04190        1.95680       -0.02490
H          4.70130        0.68280       -1.18570
