11
qm7 193 -1125.26
C         -0.36170        1.16670        0.13910
O         -1.20060       -0.00120        0.16430
C         -0.36390       -1.17000        0.12620
C          1.02060       -0.66780       -0.02650
C          1.02190        0.66280       -0.01910
H         -0.48950        1.71440        1.07730
H         -0.66470        1.80040       -0.69900
H         -0.66810       -1.79370       -0.71880
H         -0.49290       -1.72790        1.05800
H          1.89120       -1.29870       -0.12230
H          1.89390        1.29410       -0.10800
