15
qm7 2464 -1524.29
C          1.03170        0.06760        0.21420
C          2.50420       -0.06430       -0.13260
C          2.77860       -0.07500       -1.62630
O          3.28940        0.96290        0.53230
C          4.07790        0.02610        1.30810
C          3.27600       -1.10790        0.67930
O          3.26260       -2.31600        0.77940
H          0.87790        0.12050        1.29780
H          0.46410       -0.79050       -0.16150
H          0.60370        0.97470       -0.22600
H          3.85300       -0.11740       -1.83590
H          2.38310        0.82750       -2.10500
H          2.31130       -0.94340       -2.10260
H          5.13370        0.05010        1.03330
H          3.93240        0.15360        2.38180
