15
qm7 6334 -1458.84
O          1.19000        0.08970        0.56180
N          2.36400        0.02280       -0.19470
C          3.00880        1.14410       -0.15510
C          2.58850        2.39890        0.57360
C          3.31120        3.46000       -0.26090
C          4.56540        2.76610       -0.79670
N          4.19170        1.37210       -0.80380
H          0.82050       -0.80490        0.44630
H          2.96980        2.36170        1.59850
H          1.50830        2.55350        0.57630
H          2.67160        3.75590       -1.10250
H          3.54330        4.36200        0.31270
H          4.82840        3.12290       -1.79630
H          5.41610        2.91910       -0.12550
H          4.43790        0.76380       -1.57390
