18
qm7 4467 -1745.44
C          1.14190       -0.02570        0.08060
C          2.61500        0.10300       -0.31510
C          3.18880       -1.25510       -0.72110
N          2.79380        1.13640       -1.34680
C          2.52510        0.82660       -2.74090
C          2.99240        2.45070       -0.95740
O          3.08660        2.85300        0.19460
H          0.74400        0.93460        0.42490
H          1.01900       -0.75160        0.89100
H          0.52740       -0.35450       -0.76380
H          3.16240        0.43150        0.57750
H          2.63920       -1.69450       -1.55980
H          3.13800       -1.96020        0.11530
H          4.23830       -1.15900       -1.01800
H          3.27230        0.11390       -3.10130
H          2.57490        1.72600       -3.36200
H          1.52460        0.39460       -2.83160
H          3.08330        3.14180       -1.81170
