15
qm7 1668 -1505.19
C          1.11140        0.03770        0.03040
N          2.48210        0.03300        0.52570
N          3.10730        1.26180        0.61640
C          4.32610        1.20210        0.18170
C          4.68920       -0.10320       -0.38260
C          4.65400       -1.36590        0.43070
C          3.39790       -0.85680       -0.21780
H          0.68960       -0.97250        0.05340
H          1.05650        0.41590       -0.99610
H          0.48130        0.67020        0.66440
H          5.03220        2.04470        0.18480
H          5.15950       -0.11360       -1.35570
H          5.11310       -2.25330        0.01310
H          4.73620       -1.29000        1.50910
H          3.00460       -1.39530       -1.07250
