17
qm7 7003 -1661.44
C          2.62970       -0.51210        1.39390
C          2.52480        0.09750        0.00930
C          3.05640        1.49800        0.00890
N          4.25380        1.80240       -0.38830
N          4.38590        3.13390       -0.17240
C          3.09520        3.79010       -0.00320
C          2.24660        2.64910        0.52190
H          2.26170       -1.54270        1.38610
H          2.04030        0.05520        2.12180
H          3.66820       -0.52070        1.74190
H          1.48140        0.11510       -0.32130
H          3.09600       -0.50170       -0.70760
H          4.98150        3.58610       -0.86720
H          2.71630        4.13890       -0.97030
H          3.14170        4.63460        0.68920
H          1.23610        2.64550        0.10790
H          2.21920        2.61400        1.61480
