17
qm7 4596 -1585.07
C          2.03860       -0.31470        1.80900
C          1.70540        0.78900        0.82120
C          2.92480        1.62400        0.52550
O          3.20810        2.70030        1.29470
C          2.27280        3.19780        2.25920
N          3.72870        1.25740       -0.43050
N          4.79610        2.06610       -0.64510
H          1.14780       -0.91150        2.02830
H          2.42010        0.09190        2.75080
H          2.80540       -0.98390        1.40410
H          0.87620        1.40030        1.18340
H          1.36200        0.34070       -0.11900
H          2.71980        4.07590        2.73380
H          2.08080        2.45150        3.03400
H          1.34790        3.51060        1.76660
H          5.60240        1.52760       -0.95990
H          5.05700        2.59300        0.19160
