21
qm7 2388 -2046.51
C          0.92270        0.13810       -0.27000
C          2.41100        0.11170       -0.00440
C          2.73270       -0.00160        1.46830
C          3.29160       -0.63290       -0.98500
C          3.36870        0.87800       -0.93760
C          2.81030        1.65570       -2.10780
C          4.62470        1.50420       -0.37480
H          0.67630       -0.00040       -1.32660
H          0.49830        1.09140        0.06080
H          0.42240       -0.66750        0.27860
H          3.78720       -0.22050        1.65910
H          2.15430       -0.81280        1.92420
H          2.47660        0.93090        1.98180
H          2.82830       -1.10180       -1.84740
H          4.12680       -1.20830       -0.59860
H          2.02690        1.11400       -2.64500
H          3.60080        1.87120       -2.83490
H          2.39530        2.60800       -1.76230
H          5.15450        0.84570        0.31930
H          4.37930        2.43280        0.15040
H          5.32670        1.74290       -1.18110
