18
qm7 5882 -1796.04
C          0.99730        0.00250       -0.01050
C          2.53150       -0.00450       -0.02110
C          3.06670       -1.22450       -0.79360
C          3.34120       -0.66460       -2.15210
C          3.35580        0.67270       -2.13640
C          3.08480        1.22680       -0.77470
N          4.33510        1.72400       -0.21550
H          0.62230        0.87960        0.52730
H          0.61240       -0.88940        0.49520
H          0.58080        0.02300       -1.02320
H          2.86800       -0.03360        1.02280
H          2.34370       -2.04460       -0.83290
H          3.99750       -1.59730       -0.35290
H          3.54720       -1.27270       -3.02240
H          3.57340        1.29660       -2.99260
H          2.35360        2.04030       -0.81940
H          5.01370        0.96390       -0.19030
H          4.18280        1.99270        0.75440
