16
qm7 6021 -1570.62
O          1.00320        0.07410        0.03910
C          2.42090        0.00710        0.00110
C          3.00870       -1.07370        0.91340
N          3.80930       -0.25570        1.87040
C          4.46880        0.78880        0.96440
C          3.00760        1.21800        0.69710
C          2.85900        0.89930        2.20470
H          0.66240       -0.78200       -0.27210
H          2.75860       -0.08110       -1.03700
H          3.66570       -1.75450        0.36190
H          2.24490       -1.66010        1.43460
H          5.03780        0.38850        0.11780
H          5.10230        1.51340        1.49140
H          2.80460        2.22420        0.33550
H          3.27070        1.64010        2.90210
H          1.86720        0.60550        2.56560
