15
qm7 6031 -1453.26
O          1.02340        0.17600        0.04600
C          2.46430        0.09860        0.11490
C          3.14700        0.91220        1.22030
N          3.78380       -0.28890        1.69160
C          3.07020       -1.14130        0.78110
C          5.15090       -0.33170        1.66100
N          5.97180        0.55620        2.10430
H          0.76510       -0.47730       -0.62680
H          2.89650        0.29850       -0.87430
H          2.47450        1.32700        1.97710
H          3.82250        1.69270        0.85920
H          3.69220       -1.75700        0.12450
H          2.35670       -1.77870        1.31250
H          5.56110       -1.26390        1.23450
H          5.43410        1.32320        2.51900
