19
qm7 1499 -1918.71
C          1.46250       -0.22500       -0.44260
C          2.82720        0.06300        0.10060
C          3.63200       -1.07110        0.69280
C          4.04930       -0.45000       -0.61200
C          5.07170        0.64910       -0.65480
C          4.25840        1.92230       -0.39950
C          3.11840        1.48410        0.52860
H          1.12970        0.57630       -1.10950
H          0.74320       -0.30840        0.37760
H          1.43920       -1.16120       -1.00980
H          3.21530       -2.07220        0.66400
H          4.22910       -0.87880        1.57730
H          3.94160       -1.00330       -1.53360
H          5.82470        0.50500        0.12810
H          5.58280        0.69440       -1.62110
H          4.86130        2.73040        0.02400
H          3.83600        2.27620       -1.34840
H          3.44030        1.51030        1.57570
H          2.25340        2.14630        0.42350
