22
qm7 1291 -2063.64
C          1.25200       -0.14390       -0.55040
C          2.75800       -0.04580       -0.35240
C          3.24310        1.40140       -0.48460
C          4.75160        1.57980       -0.21950
N          5.55900        0.83090       -1.18420
C          5.11860        3.07420       -0.27910
C          6.58190        3.35470        0.04450
H          0.92640       -1.18540       -0.46750
H          0.96240        0.22440       -1.53970
H          0.71770        0.44080        0.20470
H          3.24600       -0.68400       -1.09700
H          3.01800       -0.43740        0.63700
H          2.68560        2.02280        0.22840
H          2.99390        1.77710       -1.48520
H          4.98280        1.20380        0.78480
H          5.28830        1.08630       -2.13320
H          5.37640       -0.16720       -1.09310
H          4.49940        3.62430        0.44050
H          4.88810        3.48400       -1.27000
H          6.85280        2.94980        1.02360
H          6.76130        4.43470        0.06200
H          7.24970        2.92120       -0.70710
