19
qm7 1441 -1777.9
C          2.15040       -0.22050        0.46280
C          2.82050       -0.50790       -0.88650
C          2.01280       -1.55830       -1.69270
N          1.96080       -2.87290       -1.04390
N          2.88590        0.75650       -1.64930
C          4.08620        1.54570       -1.37180
C          3.93570        0.78560       -2.66390
H          2.70640        0.53520        1.02830
H          2.10870       -1.12230        1.08210
H          1.12490        0.14380        0.33080
H          3.82220       -0.91640       -0.68980
H          2.46050       -1.69060       -2.68490
H          0.98620       -1.20470       -1.84680
H          2.90340       -3.25120       -0.96700
H          1.44250       -3.51530       -1.64170
H          4.79460        1.18150       -0.63900
H          3.95630        2.61970       -1.39490
H          3.70510        1.34990       -3.55990
H          4.54000       -0.09930       -2.81790
