16
qm7 5782 -1641.02
C          1.10970        0.15740        0.22170
C          2.40690       -0.08040       -0.01210
C          2.99990       -1.46650       -0.13820
C          4.22100       -1.27420       -1.05290
C          4.59300        0.17450       -0.92270
N          3.83400        1.18330       -1.64980
C          3.44980        0.91490       -0.27560
H          0.72790        1.17290        0.25370
H          0.40320       -0.65220        0.36560
H          2.30310       -2.20350       -0.55020
H          3.32830       -1.80740        0.85100
H          5.04210       -1.93140       -0.74880
H          3.96640       -1.51260       -2.09280
H          5.61190        0.38430       -0.63700
H          4.35080        2.06130       -1.71000
H          3.66600        1.65570        0.48370
