19
qm7 346 -1766.7
C          0.82380       -0.47310        0.20850
C          2.32120       -0.35120       -0.07740
C          2.76250       -1.48650       -1.00520
C          2.69270        1.00690       -0.70150
C          2.42080        2.19470        0.22380
N          2.86420        3.43490       -0.40500
H          0.50440        0.24130        0.97320
H          0.57900       -1.47430        0.58010
H          0.23100       -0.29460       -0.69520
H          2.86230       -0.46350        0.87070
H          2.25470       -1.42810       -1.97410
H          2.53660       -2.46220       -0.56230
H          3.84200       -1.44530       -1.18480
H          2.14540        1.14190       -1.64420
H          3.76060        0.99430       -0.95900
H          2.94660        2.06200        1.17520
H          1.35190        2.28170        0.43830
H          3.86710        3.39100       -0.58230
H          2.72200        4.21040        0.24100
