19
qm7 3843 -1897.65
C          0.94930        0.00550        0.01920
C          2.47000        0.00990        0.01910
C          3.02740        1.43280        0.00000
C          4.47140        1.43280        0.00000
C          5.66170        1.43280        0.00000
C          7.10580        1.43280        0.00000
C          7.66350        2.84630       -0.00120
H          0.57350       -1.02230        0.03300
H          0.55570        0.49920       -0.87480
H          0.55580        0.52290        0.89980
H          2.83120       -0.54770       -0.85420
H          2.83130       -0.52410        0.90690
H          2.65570        1.98350        0.87220
H          2.65570        1.95990       -0.88670
H          7.48260        0.89820       -0.87920
H          7.48260        0.89970        0.88010
H          7.33550        3.40140       -0.88710
H          8.75840        2.82310       -0.00120
H          7.33550        3.40300        0.88370
