16
qm7 4565 -1605.88
C          0.95820       -0.01950        0.00640
C          2.49230       -0.04510        0.02450
C          2.97050       -0.81350        1.26030
O          2.92330       -0.77230       -1.13020
C          3.03000        1.39780       -0.02180
C          4.49580        1.47830        0.05740
N          5.64950        1.58280        0.13260
H          0.58610        0.49320       -0.88810
H          0.55260        0.48690        0.88840
H          0.55090       -1.03640       -0.02920
H          2.70150       -0.29470        2.18620
H          4.05530       -0.96520        1.24480
H          2.52920       -1.81680        1.28720
H          2.50790       -0.39180       -1.92350
H          2.59930        1.98290        0.80000
H          2.71460        1.87500       -0.95820
