16
qm7 6336 -1615.57
C          0.99010       -0.05160        0.08270
C          2.49680        0.07560       -0.00520
C          3.16740        1.11470        0.91680
C          4.19180        0.00620        1.23110
N          3.19540       -0.98290        0.76020
C          5.38540       -0.02410        0.40780
C          6.37340       -0.05110       -0.27680
H          0.64040       -0.92560       -0.47700
H          0.50770        0.83220       -0.34750
H          0.64440       -0.15050        1.11760
H          2.83780        0.14670       -1.04690
H          2.56760        1.41440        1.78510
H          3.54440        2.01590        0.42440
H          4.41970       -0.08650        2.29890
H          3.58360       -1.73280        0.19070
H          7.24760       -0.07550       -0.88430
