14
qm7 5854 -1472.88
N          2.71680       -0.96610       -0.46380
C          2.18100        0.15270        0.09940
O          1.05870        0.13390        0.59060
C          3.04030        1.38520        0.02890
C          2.40430        2.56460        0.13040
C          4.48960        1.27880       -0.01440
C          5.30340        2.06790       -0.72830
H          3.57390       -0.95360       -0.99710
H          2.13510       -1.79220       -0.49250
H          1.32160        2.61740        0.21170
H          2.93930        3.50760        0.15100
H          4.92120        0.47850        0.58480
H          4.92890        2.87510       -1.35060
H          6.37870        1.91890       -0.70320
