13
qm7 6032 -1320.68
O          0.89550        0.00150        0.02890
C          2.34080       -0.01970        0.01470
C          3.05260        1.00650        0.92470
N          4.05690       -0.02670        1.27200
C          3.05460       -1.07540        0.90500
C          3.63530       -2.19230        0.18620
N          4.09870       -3.06910       -0.41830
H          0.62080       -0.69450       -0.59430
H          2.70980        0.02300       -1.01970
H          2.45900        1.34450        1.78220
H          3.46180        1.88360        0.41530
H          4.87950       -0.01210        0.66530
H          2.45040       -1.39410        1.76490
