15
qm7 5919 -1437.43
N          1.40030        1.54190        0.80120
N          2.66230        1.87600        0.44320
C          3.52110        0.93440        0.65060
O          4.83850        1.03680        0.36240
C          5.25990        2.29540       -0.17480
C          6.73640        2.28430       -0.46280
C          7.58470        1.26190       -0.28080
H          0.80110        2.36930        0.73950
H          0.99500        0.87500        0.13890
H          3.29700       -0.05750        1.07820
H          5.05020        3.09190        0.54900
H          4.72380        2.49630       -1.11010
H          7.13330        3.21720       -0.85830
H          7.25130        0.30600        0.10950
H          8.63670        1.36290       -0.52330
