16
qm7 5110 -1549.38
C          0.22230       -1.74170        0.67630
N          1.24550       -1.16290       -0.20450
C          1.97360       -2.25640       -0.87400
C          2.19180       -0.34180        0.61000
C          2.88580        0.68410       -0.28540
O          2.21670        0.87630       -1.45210
O          3.88980        1.30790        0.02100
H          0.65820       -2.36990        1.46160
H         -0.48350       -2.34790        0.09760
H         -0.36470       -0.94850        1.15250
H          1.28750       -2.83860       -1.49940
H          2.44990       -2.93640       -0.15840
H          2.74760       -1.86230       -1.54120
H          2.93980       -0.96280        1.11410
H          1.64210        0.24220        1.35770
H          1.45790        0.24290       -1.44110
