19
qm7 1414 -1799.65
C          0.93490       -0.17670        0.01680
C          2.43670        0.07130       -0.11650
C          3.07880       -0.84570       -1.15540
N          2.72340        1.48520       -0.41650
C          2.13410        2.07720       -1.60980
C          3.48630        2.23190        0.44710
N          3.80150        3.47430        0.37320
H          0.49130        0.50790        0.74780
H          0.74420       -1.20110        0.35400
H          0.40690       -0.03930       -0.93220
H          2.88230       -0.18920        0.85260
H          2.63980       -0.71450       -2.14940
H          2.95090       -1.89590       -0.87230
H          4.15280       -0.64650       -1.23720
H          1.65570        1.33890       -2.25950
H          2.90310        2.57680       -2.20830
H          1.37510        2.81390       -1.32740
H          3.86410        1.65630        1.30890
H          3.39260        3.89130       -0.46270
