16
qm7 840 -1477.44
C          1.04940       -0.16130       -0.01920
O          2.46730       -0.05680       -0.00720
C          2.89070        1.30680       -0.00750
C          4.41370        1.36470        0.00660
O          4.83560        2.72810        0.02710
C          6.25330        2.83270        0.03790
H          0.78230       -1.22030       -0.00690
H          0.64110        0.29230       -0.92840
H          0.62180        0.31830        0.86610
H          2.49090        1.82400        0.87400
H          2.50690        1.81930       -0.89790
H          4.81220        0.86080       -0.88210
H          4.79720        0.83930        0.88900
H          6.52000        3.89270        0.06770
H          6.67610        2.39130       -0.87000
H          6.66820        2.34300        0.92420
