16
qm7 241 -1503.98
C          0.72350        1.19870       -0.23650
C         -0.74940        1.20600        0.22890
N         -1.48520        0.00120       -0.18180
C         -0.75010       -1.20840        0.21350
C          0.72210       -1.19620       -0.25180
N          1.45780       -0.00190        0.20360
H          0.77020        1.27150       -1.33050
H          1.23140        2.08490        0.15950
H         -1.25260        2.08530       -0.18740
H         -0.78690        1.30010        1.32140
H         -2.40730       -0.00060        0.25040
H         -0.78810       -1.31620        1.30480
H         -1.25430       -2.08160       -0.21390
H          1.22960       -2.08750        0.13330
H          0.76910       -1.25520       -1.34640
H          1.46620       -0.00820        1.22320
