14
qm7 6436 -1444.52
C          0.92670       -0.04290        0.01070
C          2.41700        0.04440        0.01250
C          3.17130        1.20420        0.05250
N          2.73130        2.47860        0.09200
S          4.85270        0.88130        0.04900
C          4.59950       -0.80450       -0.00510
C          3.26110       -1.11820       -0.01990
H          0.44930        0.94140        0.02720
H          0.58010       -0.59810        0.88910
H          0.58080       -0.56770       -0.88660
H          3.39740        3.22620       -0.07680
H          1.77690        2.71080       -0.15710
H          5.44100       -1.48280       -0.02100
H          2.89530       -2.13700       -0.04970
