16
qm7 5788 -1568.07
N          1.22930       -0.26990       -0.38580
C          2.69850       -0.18970       -0.31650
C          3.12780        1.26530       -0.04250
O          2.41610        1.73060        1.11460
C          4.63100        1.40180        0.21100
C          5.42880        1.11980       -0.99230
C          6.08340        0.89070       -1.97300
H          0.96320       -1.24390       -0.53860
H          0.90760        0.23410       -1.21410
H          3.13410       -0.56630       -1.24720
H          3.02600       -0.83580        0.50550
H          2.82630        1.90440       -0.88180
H          1.54230        1.28890        1.05390
H          4.93400        0.74010        1.03150
H          4.84540        2.41930        0.56080
H          6.66870        0.69100       -2.84170
