21
qm7 1405 -1927.87
C          2.09460       -1.29060        0.83630
C          3.17990       -0.45210        0.17720
C          3.00150        1.03350        0.49090
N          4.05990        1.80700       -0.16000
C          3.92190        3.23910        0.15100
C          5.04000        4.07270       -0.50380
N          5.18300        3.79370       -1.93850
H          2.24610       -2.35080        0.61260
H          1.10340       -1.00430        0.47130
H          2.10960       -1.16700        1.92370
H          3.15010       -0.61740       -0.90700
H          4.16030       -0.79520        0.53060
H          3.04380        1.17990        1.57660
H          2.01750        1.36780        0.14120
H          3.96750        1.70860       -1.17280
H          3.96040        3.39740        1.23500
H          2.95060        3.60210       -0.20910
H          5.99450        3.86050       -0.00920
H          4.82580        5.13740       -0.36350
H          5.51610        2.83320       -2.03060
H          5.93420        4.37620       -2.30990
