19
qm7 2924 -1847.41
C          1.12710       -0.49140        0.14820
C          2.64240       -0.74600        0.09960
C          3.06150       -1.42910        1.40890
C          2.94860       -1.62710       -1.12000
O          3.23390        0.56250       -0.02490
C          4.58850        0.65440       -0.14750
C          5.18110        1.81140       -0.43930
H          0.78860        0.02080       -0.76000
H          0.86920        0.16490        0.98760
H          0.56090       -1.42310        0.25120
H          2.89250       -0.76600        2.26470
H          4.12680       -1.68130        1.41300
H          2.50290       -2.35700        1.57120
H          2.71330       -1.09900       -2.05090
H          2.37310       -2.55870       -1.09340
H          4.00890       -1.89560       -1.16940
H          5.15250       -0.25230        0.01500
H          4.59500        2.71180       -0.59320
H          6.25910        1.88130       -0.52820
