19
qm7 3073 -1868.74
C          0.89770        0.59380       -0.72670
C          2.34990        0.50670       -0.29260
C          3.11420        1.79760       -0.54360
O          2.59900        2.76350       -1.10640
C          4.57370        1.81540       -0.09380
C          5.45580        1.23110       -1.19080
C          5.01450        3.23110        0.26790
H          0.38130       -0.34910       -0.52210
H          0.81930        0.80080       -1.79940
H          0.37470        1.39370       -0.19190
H          2.84580       -0.30200       -0.83840
H          2.39440        0.28630        0.77880
H          4.65510        1.19780        0.80860
H          5.36590        1.80430       -2.11990
H          5.17250        0.19760       -1.41510
H          6.50780        1.23280       -0.88830
H          4.98440        3.89660       -0.60210
H          6.03740        3.23120        0.65860
H          4.35850        3.65790        1.03390
