19
qm7 1340 -1774.27
C          0.63340       -1.06430        0.26040
C          2.12370       -0.91430       -0.05380
C          2.53800       -1.94440       -1.10670
C          2.47400        0.50210       -0.54270
N          2.19650        1.51480        0.48170
N          2.47380        2.79150        0.12500
C          2.15890        3.65660        1.03040
H          0.32630       -0.39350        1.06940
H          0.40600       -2.08740        0.57990
H          0.01790       -0.84120       -0.61820
H          2.69010       -1.12560        0.86220
H          2.00420       -1.78660       -2.05050
H          2.32350       -2.96190       -0.76220
H          3.61250       -1.88180       -1.31030
H          1.90110        0.73530       -1.44910
H          3.53810        0.54490       -0.80640
H          2.67220        1.24980        1.34700
H          2.34280        4.72620        0.84540
H          1.70010        3.39110        1.99890
