12
qm7 165 -1174.66
C          1.00000        0.00000        0.00000
C          2.44400        0.00000        0.00000
C          3.63420        0.00000        0.00000
C          5.07810        0.00000        0.00000
N          5.57960        1.36640        0.01820
H          0.60600        1.02090        0.01170
H          0.60590       -0.52050        0.87830
H          0.60590       -0.50030       -0.88990
H          5.46010       -0.51400       -0.88850
H          5.46220       -0.53340        0.87550
H          5.21420        1.85960       -0.79450
H          6.59140        1.35000       -0.08470
