16
qm7 3861 -1543.16
C         -1.72290        0.59430        0.22950
O         -1.52810       -0.77940       -0.33870
C         -0.18760       -0.65950        0.20850
C          1.07510       -1.00840       -0.52880
N          2.01520        0.05220       -0.06890
C          1.13180        1.11700        0.49490
C         -0.23020        0.84910       -0.10480
H         -2.44290        1.16630       -0.36040
H         -2.01570        0.56720        1.28510
H         -0.17100       -0.96610        1.26670
H          1.45120       -2.00310       -0.27150
H          0.96040       -0.94930       -1.61740
H          2.59940       -0.31440        0.68390
H          1.11770        1.06390        1.58980
H          1.51500        2.10020        0.20720
H         -0.17730        1.12530       -1.17330
