16
qm7 4420 -1601.96
C          0.99170       -0.16080        0.04610
C          2.51020       -0.02140       -0.00110
C          3.02740        1.43280        0.00000
C          2.51180        2.22530       -1.20390
O          2.52360        2.09120        1.17520
C          4.47140        1.43280        0.00000
N          5.62250        1.43280        0.00000
H          0.71770       -1.21840        0.11860
H          0.52500        0.23770       -0.85860
H          0.56890        0.35390        0.91350
H          2.88720       -0.55770       -0.88260
H          2.91080       -0.54650        0.87790
H          2.78270        1.74700       -2.15180
H          2.92740        3.24090       -1.20950
H          1.42380        2.34800       -1.17060
H          2.95580        1.68720        1.94900
