17
qm7 6850 -1649.76
C          0.98350        0.10400        0.20240
C          2.46410       -0.11180       -0.08910
N          2.75680       -1.49510       -0.52100
C          2.76550       -1.52130       -1.99350
C          3.19940       -0.14440       -2.38210
N          2.24810        0.96030       -2.46400
C          2.98060        0.74400       -1.21400
H          0.79330        1.14920        0.46820
H          0.65740       -0.52360        1.03820
H          0.35400       -0.13580       -0.66110
H          3.03870        0.09250        0.82190
H          2.04600       -2.13370       -0.17230
H          3.46280       -2.28400       -2.35270
H          1.76590       -1.74370       -2.38420
H          4.12530       -0.08830       -2.93400
H          2.64950        1.74280       -2.98220
H          3.74390        1.45440       -0.93180
