15
qm7 2703 -1540.89
C          3.43840       -0.95190       -2.44220
C          3.53280       -0.51230       -1.32950
C          3.64620        0.02570        0.03410
C          4.37880        1.35510        0.03050
C          3.61030        2.57390       -0.49500
O          3.85480        3.30530        0.73040
C          4.37540        2.11280        1.36260
H          3.35400       -1.34430       -3.43020
H          4.18970       -0.69110        0.66110
H          2.64530        0.13190        0.46990
H          5.38970        1.27860       -0.39160
H          2.53720        2.44010       -0.66350
H          4.06070        3.07010       -1.35930
H          5.36220        2.28500        1.80170
H          3.68940        1.74510        2.13200
