21
qm7 1552 -1929.24
C          1.08690       -0.13760       -0.03210
C          2.60550       -0.05940       -0.01460
N          3.02470        1.34100        0.02760
C          4.49310        1.44890       -0.00080
C          4.97320        2.92290        0.03910
C          4.64630        3.65770       -1.26290
N          4.37230        3.64780        1.17390
H          0.76410       -1.18320       -0.05780
H          0.67650        0.36330       -0.91540
H          0.65340        0.32770        0.85920
H          2.99540       -0.54780       -0.91490
H          2.98590       -0.60080        0.85940
H          2.70980        1.75510        0.90660
H          4.88890        0.96870       -0.90380
H          4.91210        0.92190        0.86620
H          6.06120        2.92090        0.17370
H          3.56650        3.72300       -1.43660
H          5.09410        3.14230       -2.11910
H          5.04450        4.67840       -1.24540
H          3.37420        3.74970        0.98460
H          4.73930        4.59920        1.18740
