15
qm7 4487 -1498.67
C          0.96840        0.08540       -0.14550
C          2.44250       -0.11930        0.01600
C          3.08240       -1.30010       -0.01280
N          2.56650       -2.55670       -0.21950
C          3.21720        1.12930        0.26650
N          4.40300        1.23360       -0.39240
O          2.78100        2.04480        0.95120
H          0.77110        0.84350       -0.91120
H          0.52310        0.42210        0.79660
H          0.44740       -0.82560       -0.45360
H          4.15920       -1.34400        0.15140
H          1.56210       -2.63100       -0.07550
H          3.07700       -3.29610        0.26050
H          4.68740        0.57690       -1.10490
H          4.89650        2.11280       -0.31770
