20
qm7 1683 -1930.18
C          2.13650       -0.26880       -1.52250
N          2.34580        0.12020       -0.13410
C          3.03870        1.39890       -0.01590
C          2.22030        2.61040       -0.45660
C          2.93660        3.79200        0.19310
C          3.65170        3.22900        1.42220
C          3.33280        1.73730        1.44620
H          1.65400       -1.25080       -1.55390
H          3.08360       -0.34390       -2.06650
H          1.47650        0.43150       -2.04300
H          2.89230       -0.60300        0.33390
H          3.98930        1.36700       -0.56610
H          1.19350        2.54970       -0.07570
H          2.17000        2.71720       -1.54450
H          3.67140        4.22020       -0.49950
H          2.23310        4.58790        0.45830
H          4.73200        3.38760        1.32830
H          3.32590        3.72050        2.34390
H          4.15890        1.14700        1.85690
H          2.45050        1.56210        2.07610
