17
qm7 5207 -1627.89
C          1.49380       -0.63500        0.19180
N          2.78270       -0.02780        0.37250
C          3.78700       -0.16180       -0.56650
O          3.71450       -0.91010       -1.53600
C          5.03320        0.68250       -0.22270
C          5.90460        0.92070       -1.44930
N          4.61460        1.97430        0.38000
H          0.94100       -0.56820        1.13130
H          1.61170       -1.68180       -0.10110
H          0.95750       -0.09750       -0.59480
H          2.89030        0.77880        0.98500
H          5.60350        0.12070        0.52680
H          5.35370        1.45460       -2.23230
H          6.24220       -0.02970       -1.87670
H          6.79300        1.50730       -1.19480
H          4.15810        2.52890       -0.34650
H          5.45580        2.49790        0.62720
