22
qm7 7136 -2064.19
C          1.76390       -0.88610        0.28740
C          3.23160       -0.50790        0.06470
C          3.70510       -1.05450       -1.28350
C          3.39550        1.02400        0.16860
C          4.84010        1.54240        0.05090
C          4.86810        3.06880        0.14070
N          5.68500        0.97530        1.10280
H          1.41800       -0.54010        1.26670
H          1.63290       -1.97250        0.25310
H          1.11880       -0.44210       -0.47770
H          3.81890       -0.98990        0.85650
H          3.19420       -0.55710       -2.11420
H          3.50480       -2.12850       -1.35850
H          4.78240       -0.91740       -1.41280
H          2.97300        1.35710        1.12660
H          2.78700        1.49850       -0.61250
H          5.25700        1.25480       -0.91990
H          4.47010        3.42430        1.09800
H          4.26640        3.51310       -0.65970
H          5.89030        3.45050        0.03660
H          5.32620        1.24750        2.01760
H          6.62320        1.36870        1.03950
