17
qm7 4120 -1586.98
C          0.97540        0.05880       -0.16640
C          2.46980       -0.04550        0.00660
N          2.92790       -0.01850        1.42570
C          3.31250       -0.83000       -0.99240
N          2.70040       -1.59830       -2.08060
C          3.33230        0.67640       -1.01520
O          4.50390        1.31240       -0.46440
H          0.68050        0.19540       -1.21150
H          0.58630        0.91510        0.39650
H          0.48690       -0.84720        0.20870
H          3.85620       -0.44080        1.50000
H          2.32540       -0.61600        1.99420
H          4.22060       -1.29850       -0.61680
H          1.97110       -1.07320       -2.56080
H          2.26270       -2.44560       -1.72240
H          2.84640        1.17740       -1.84450
H          4.32450        1.53240        0.47010
