17
qm7 2837 -1718.08
C          2.51640       -0.44830       -1.38160
C          2.48390        0.13520        0.02420
C          2.85750        1.60280        0.07420
C          1.97890        2.52690        0.50100
C          4.24650        1.99350       -0.37140
C          5.27980        1.38790        0.54860
O          6.08770        0.53360        0.19290
H          2.13990       -1.47650       -1.36950
H          3.53550       -0.47630       -1.78020
H          1.89310        0.13320       -2.06870
H          3.15640       -0.43720        0.67380
H          1.47520       -0.01140        0.43110
H          0.97630        2.25430        0.81980
H          2.22810        3.58350        0.53760
H          4.39090        3.07980       -0.35050
H          4.43430        1.66480       -1.39830
H          5.27710        1.76630        1.58550
