17
qm7 4440 -1585.54
C          1.18130       -0.15360        0.11950
C          2.53400        0.48620       -0.07970
C          3.73320       -0.44670       -0.16120
C          4.01250       -0.78940       -1.61750
O          4.69240        0.27690       -2.27140
N          2.57490        1.77960       -0.23250
N          3.78810        2.33680       -0.42720
H          0.39710        0.60770        0.16690
H          1.18250       -0.72320        1.05220
H          0.97350       -0.82730       -0.71500
H          3.48920       -1.35970        0.39330
H          4.60390        0.01140        0.31600
H          3.09350       -1.00230       -2.17350
H          4.65870       -1.67040       -1.67850
H          4.29880        1.11110       -1.93180
H          3.66260        3.31090       -0.72310
H          4.28470        2.42120        0.46600
