16
qm7 5347 -1592.58
C          1.38270       -0.23630       -0.29800
O          2.79750       -0.10600       -0.36880
C          3.24590        1.11740        0.21920
C          4.77070        1.21070        0.10710
C          5.22550        1.24970       -1.35230
C          5.24430        2.40590        0.82190
N          5.60560        3.35180        1.38860
H          1.10100       -1.18470       -0.76310
H          0.89580        0.57860       -0.84220
H          1.05110       -0.24530        0.74470
H          2.94280        1.13580        1.27380
H          2.76740        1.96450       -0.28910
H          5.21160        0.31680        0.56600
H          4.80070        2.11090       -1.88070
H          4.92360        0.34230       -1.88560
H          6.31680        1.32720       -1.41930
