12
qm7 6151 -1283.06
O          1.20770        0.45940       -0.90900
C          2.07260        0.23180       -0.06950
C          3.18990        1.17190        0.17710
N          3.68050        1.89040       -1.00750
C          2.98430        2.65780        0.02710
C          3.75730        3.54380        0.84460
C          4.40370        4.28960        1.52900
H          2.06230       -0.68400        0.54370
H          3.95810        0.82490        0.85810
H          3.04250        1.73510       -1.79530
H          1.99260        3.00880       -0.24450
H          4.98320        4.95340        2.12710
