19
qm7 1986 -1802.11
N          2.01180       -0.28280       -1.43880
C          2.35800        0.08080       -0.06790
C          3.09990        1.41380       -0.01630
C          2.28930        2.60940       -0.49610
C          3.02850        3.76590        0.14500
N          3.37950        3.27620        1.47890
C          3.50140        1.81590        1.40300
H          1.55040       -1.19180       -1.44140
H          2.86080       -0.39140       -1.99200
H          2.98270       -0.70890        0.36470
H          1.43860        0.13170        0.52620
H          4.01260        1.34620       -0.62630
H          1.25650        2.56160       -0.12900
H          2.26650        2.68990       -1.58710
H          3.93940        3.99780       -0.41960
H          2.41480        4.66940        0.19950
H          4.24830        3.70090        1.79810
H          4.52580        1.49510        1.62090
H          2.84390        1.37010        2.15710
