17
qm7 5114 -1568.06
C          1.04620        0.02290       -0.50380
N          2.48800        0.20510       -0.48040
C          2.98810        1.31460       -0.02980
C          2.11210        2.43640        0.51320
N          4.36830        1.51860       -0.03050
C          5.23830        0.63770       -0.79820
O          4.74060        2.86270       -0.16970
H          0.81270       -0.87680       -1.08210
H          0.53040        0.85750       -0.98980
H          0.64960       -0.12670        0.50530
H          1.28720        2.03700        1.10800
H          1.71040        3.01260       -0.32500
H          2.68390        3.10420        1.16320
H          5.09880       -0.40600       -0.49900
H          6.28770        0.89350       -0.61820
H          5.03820        0.73230       -1.87050
H          5.16060        3.05590        0.68930
