13
qm7 2680 -1369.47
C          1.66210       -0.38980       -1.24250
C          2.14120        0.25730       -0.16970
C          3.23020        1.30040       -0.14830
O          3.72460        1.59230       -1.47870
C          3.54580        2.95440       -1.52770
C          2.99280        3.44440       -0.43800
O          2.71680        2.48750        0.50800
H          0.86880       -1.12360       -1.14140
H          2.04390       -0.19880       -2.24120
H          1.71650        0.02720        0.80450
H          4.07280        0.92700        0.44760
H          3.85650        3.44860       -2.42920
H          2.72180        4.45580       -0.19400
