15
qm7 2570 -1527.51
C          0.95900       -0.01740        0.12480
C          2.47500        0.00430       -0.02500
O          2.78510        0.04730       -1.43830
C          3.17500        1.09860        0.84050
C          4.12560       -0.01220        1.32100
O          5.20920       -0.01410        1.86300
C          3.20140       -1.11730        0.78020
H          0.65600       -0.04910        1.17630
H          0.53240       -0.89510       -0.37320
H          0.51100        0.87560       -0.32580
H          3.75510        0.05960       -1.51190
H          2.57480        1.52830        1.64770
H          3.66880        1.89530        0.28090
H          3.71390       -1.87070        0.17770
H          2.61230       -1.60470        1.56200
