10
qm7 117 -988.34
O          2.30720        0.02110       -1.15650
C          2.24740        0.36710        0.01640
N          2.87300        1.46110        0.59810
C          4.18880        1.84950        0.17570
C          3.00630        2.68940       -0.13250
H          1.65910       -0.18570        0.76730
H          4.62530        1.24700       -0.61050
H          4.83840        2.12890        0.99280
H          2.81100        3.56880        0.46430
H          2.60370        2.68280       -1.13740
