20
qm7 6926 -1909.79
C          1.88790       -0.60570       -1.34150
C          2.37800       -0.07690       -0.00180
C          3.18770        1.21840       -0.14530
C          4.50320        1.02500       -0.90600
C          2.37510        2.47320       -0.56180
N          3.03750        3.23820        0.51430
C          3.37130        1.97230        1.19980
H          1.25490       -1.48590       -1.18910
H          2.72110       -0.90460       -1.98430
H          1.30050        0.14660       -1.87660
H          2.98430       -0.84510        0.49290
H          1.50400        0.09200        0.63970
H          5.11290        1.93530       -0.90540
H          4.32120        0.76160       -1.95250
H          5.10140        0.22810       -0.45150
H          1.29050        2.39250       -0.42010
H          2.55940        2.85390       -1.57130
H          3.86130        3.74730        0.19300
H          4.37340        1.94330        1.63970
H          2.65060        1.71330        1.98500
