15
qm7 5906 -1440.44
N          0.94660        1.23560        0.32950
N          2.23290        1.63560        0.20750
C          3.05450        0.64550        0.04440
C          4.52040        0.83750       -0.11650
C          5.26710       -0.26700       -0.27760
C          5.01070        2.25490       -0.09290
O          6.43590        2.31920       -0.13320
H          0.33270        2.00450        0.04400
H          0.71660        1.10200        1.31840
H          2.69610       -0.40140        0.01240
H          4.83820       -1.26450       -0.29250
H          6.34110       -0.20060       -0.42650
H          4.68180        2.77240        0.81480
H          4.63040        2.80280       -0.96100
H          6.74970        1.97500        0.72010
