19
qm7 3450 -1774.79
C          1.40430       -0.25600       -0.86850
O          2.80660       -0.02780       -0.85610
C          3.12450        1.24950       -0.29970
C          4.64030        1.40360       -0.29320
C          5.07840        2.78130        0.18040
O          4.60500        3.00210        1.50710
C          5.02410        4.26310        2.01200
H          1.22040       -1.24820       -1.29080
H          0.90110        0.48820       -1.49310
H          1.00110       -0.22970        0.14850
H          2.72650        1.31210        0.71980
H          2.66550        2.03380       -0.91200
H          5.03740        1.21170       -1.29790
H          5.06600        0.63040        0.35980
H          4.67940        3.55510       -0.48510
H          6.17340        2.83860        0.16890
H          4.62630        4.37830        3.02380
H          4.63480        5.07400        1.38860
H          6.11620        4.31340        2.05790
