20
qm7 6790 -1933.61
C          0.99050        0.02780       -0.01070
C          2.50810        0.00060        0.04160
C          3.10020        1.08980        0.91950
N          4.46950        0.61730        1.15120
C          4.34150       -0.83220        1.38980
C          5.58600       -1.58120        0.93410
C          3.07600       -1.27880        0.64870
H          0.61110       -0.79140       -0.62920
H          0.63610        0.97120       -0.44110
H          0.55220       -0.07160        0.98810
H          2.89780        0.10860       -0.97980
H          2.57060        1.18430        1.87490
H          3.09530        2.06730        0.42730
H          5.01040        0.76740        0.29810
H          4.20740       -0.99730        2.46610
H          5.76700       -1.44910       -0.13880
H          5.48070       -2.65420        1.12680
H          6.47340       -1.22910        1.47180
H          3.27250       -2.02180       -0.13200
H          2.37160       -1.72370        1.36220
