16
qm7 6354 -1558.52
O          0.83860        0.71040        0.78900
N          1.85100        0.82830       -0.17100
C          2.96370        1.11290        0.42540
C          4.23320        1.29790       -0.35950
C          4.76690        2.69320       -0.23730
C          5.90140        3.00860        0.70460
C          6.13530        3.01610       -0.78070
H          0.05950        0.49430        0.24320
H          3.02690        1.23030        1.52160
H          4.03970        1.07300       -1.41420
H          4.95940        0.56500        0.01350
H          3.99620        3.44270       -0.38770
H          6.35070        2.20630        1.27900
H          5.88710        3.96350        1.21840
H          6.27130        3.97490       -1.26980
H          6.72740        2.21550       -1.20840
