18
qm7 4183 -1764.8
C          1.56750        1.44270       -0.61930
C          0.20600        1.13650       -0.06630
C          1.18510        0.02100       -0.31590
N          1.76320       -0.66780        0.83970
C          3.12800       -1.11010        0.53860
C          4.28270       -0.35780        1.13960
C          3.94450       -1.73180        1.63820
H          1.64190        1.73260       -1.66020
H          2.28050        1.93350        0.03250
H         -0.64470        1.22190       -0.73090
H          0.00350        1.42680        0.95770
H          0.97360       -0.61780       -1.17070
H          1.18040       -1.46160        1.10660
H          3.27630       -1.53770       -0.45130
H          4.06470        0.48320        1.78770
H          5.17460       -0.23630        0.53750
H          4.61070       -2.54480        1.37520
H          3.50640       -1.81670        2.62590
