14
qm7 4537 -1380.76
C          0.94540       -0.08950        0.04590
C          2.44910       -0.16870        0.04780
C          3.05360       -1.36530        0.14120
N          3.16490        1.01000       -0.04800
O          4.57910        0.88560       -0.04340
C          2.70970        2.30590       -0.14910
O          3.44880        3.28550       -0.22950
H          0.58930        0.50760        0.89200
H          0.48070       -1.07830        0.12920
H          0.58420        0.36090       -0.88460
H          2.48650       -2.28750        0.21610
H          4.13510       -1.46570        0.14610
H          4.86080        1.82160       -0.11940
H          1.61520        2.40290       -0.15280
