12
qm7 5759 -1283.59
N          0.98050       -0.13550        0.51300
C          2.29620       -0.01880        0.12790
C          3.03250        1.09700       -0.01510
C          2.45720        2.44770        0.19450
O          1.25780        2.65890        0.35430
C          4.45430        0.94630       -0.38900
O          5.19460        1.90830       -0.55430
H          0.45360       -0.85900        0.02770
H          0.48390        0.76670        0.51410
H          2.73280       -1.00110       -0.04590
H          3.18620        3.27540        0.18440
H          4.81890       -0.08700       -0.51490
