20
qm7 4624 -1853.35
C          0.88470       -0.41260        0.08750
C          2.33560       -0.02960       -0.21470
C          2.90770       -0.93940       -1.32660
O          4.24360       -0.54420       -1.63960
N          2.57970        1.40450       -0.53370
C          1.80780        1.90640       -1.67300
C          2.36170        2.26480        0.63370
H          0.48100        0.16440        0.92570
H          0.82360       -1.47050        0.36680
H          0.23250       -0.26520       -0.77860
H          2.93380       -0.25180        0.67980
H          2.31190       -0.89040       -2.24420
H          2.93370       -1.98350       -0.99790
H          4.25240        0.42450       -1.49280
H          2.01600        1.33340       -2.58100
H          2.09760        2.93940       -1.89700
H          0.72930        1.89390       -1.49030
H          2.94980        1.91850        1.48920
H          1.30890        2.31000        0.93050
H          2.69630        3.28510        0.41910
