16
qm7 1366 -1654.27
C          1.12070        0.24890        0.10760
C          2.60210       -0.05150       -0.08230
C          2.84200       -0.75020       -1.35720
N          3.02100       -1.30930       -2.35920
C          3.41040        1.21800       -0.18400
C          3.84690        1.93620        1.07070
C          4.86710        1.24070        0.21480
H          0.95190        0.79300        1.04310
H          0.53440       -0.67600        0.14110
H          0.72460        0.86470       -0.70840
H          2.95420       -0.67110        0.75060
H          3.11160        1.84220       -1.02250
H          3.61540        1.49980        2.03610
H          3.83580        3.02110        1.06490
H          5.54260        1.85410       -0.37330
H          5.32250        0.33510        0.59970
