15
qm7 5835 -1465.04
N         -0.32940        0.86200       -0.88930
C          0.57940        1.25740        0.05140
N          0.29010        2.17480        0.91510
C          1.96820        0.61460        0.07570
O          1.92450       -0.61180       -0.65400
C          3.08030       -1.33800       -0.71240
C          4.26970       -1.07540       -0.16060
H         -0.09940       -0.03230       -1.32110
H         -1.30380        0.93170       -0.62680
H         -0.65420        2.52170        0.73110
H          2.24290        0.43520        1.12160
H          2.66850        1.31620       -0.39170
H          2.91330       -2.23150       -1.30560
H          4.46570       -0.19430        0.43870
H          5.09660       -1.76490       -0.30150
