16
qm7 7032 -1614.22
C          1.00000        0.00000        0.00000
C          2.44400        0.00000        0.00000
C          3.63420        0.00000        0.00000
C          5.08130        0.01070       -0.00020
C          5.76330        1.01970        0.94880
N          6.77610       -0.01740        1.27340
C          5.78130       -1.04770        0.88120
H          0.60600        1.02080        0.01180
H          0.60600       -0.52060        0.87830
H          0.60590       -0.50030       -0.88990
H          5.50080        0.04740       -1.01550
H          5.17070        1.32710        1.82010
H          6.16860        1.91730        0.47200
H          7.58840        0.01180        0.65620
H          6.20140       -1.90420        0.34580
H          5.19400       -1.42150        1.72900
