16
qm7 438 -1615.66
C          0.94270        0.00020        0.95590
C          0.28000       -1.01270       -0.03050
C          0.77000       -0.01520       -1.12680
C          0.29920        1.00900       -0.04660
C         -1.20550        0.77910        0.07920
C         -1.22000       -0.75240        0.09130
H          2.03790       -0.01000        0.99040
H          0.55970        0.01200        1.98060
H          0.64570       -2.03830       -0.05320
H          0.22370       -0.01760       -2.07480
H          1.84480       -0.02700       -1.34100
H          0.68410        2.02710       -0.08600
H         -1.61200        1.19940        1.00410
H         -1.75890        1.18670       -0.77200
H         -1.78070       -1.16300       -0.75350
H         -1.63440       -1.15030        1.02260
