15
qm7 3379 -1534.11
C          2.51570       -0.82160       -0.92040
O          2.38240        0.01910        0.21840
C          2.89400        1.33860        0.00000
C          2.38810        2.17680        1.14010
C          1.64970        3.28930        1.01560
C          4.33800        1.33860        0.00000
C          5.52830        1.33860        0.00000
H          2.00520       -1.76520       -0.70940
H          3.56870       -1.04210       -1.11960
H          2.05190       -0.36610       -1.80060
H          2.50140        1.72570       -0.94850
H          2.63610        1.82150        2.13850
H          1.36180        3.68010        0.04500
H          1.31290        3.82890        1.89530
H          6.59350        1.33740        0.00780
