19
qm7 2015 -1786.7
N          1.29280        2.84580       -1.58680
C          2.64750        2.95320       -1.05440
C          3.24050        1.56960       -0.77890
C          4.61910        1.67560       -0.19150
C          5.64210        0.60530       -0.47060
C          5.80030        1.97040       -1.07760
N          6.85500        2.85190       -0.59190
H          0.91520        3.78000       -1.74050
H          0.68710        2.40280       -0.89720
H          2.63140        3.54990       -0.13510
H          3.27250        3.49030       -1.77740
H          3.26020        0.98450       -1.70590
H          2.60490        1.02420       -0.07090
H          4.60040        2.09470        0.80880
H          5.37910       -0.20980       -1.13710
H          6.30940        0.31190        0.33080
H          5.61770        2.04220       -2.14810
H          7.03280        2.71530        0.40140
H          6.58830        3.83000       -0.70040
