21
qm7 3832 -2046.05
C          2.23690       -1.03420       -0.78770
C          1.89930        0.27250       -0.08530
C          3.12450        1.12770        0.19090
C          4.02660        0.60100        1.28110
C          3.76340        1.86290       -0.97310
C          2.95240        2.63540        0.03100
C          3.61120        3.62790        0.92940
H          1.32030       -1.58870       -1.01410
H          2.86820       -1.67470       -0.16420
H          2.76670       -0.85340       -1.72890
H          1.38680        0.05910        0.85940
H          1.18420        0.82190       -0.70960
H          4.93630        1.19800        1.39820
H          4.34670       -0.42160        1.06250
H          3.49790        0.59820        2.23930
H          3.34350        1.73220       -1.96510
H          4.84140        1.98550       -0.97860
H          1.97820        2.99890       -0.28350
H          4.67590        3.42620        1.07510
H          3.12180        3.63320        1.90770
H          3.52240        4.63150        0.50140
