17
qm7 3161 -1721.47
C          0.81920       -0.00870       -0.11660
C          2.29560       -0.29450       -0.03390
O          2.72910       -1.43250       -0.21080
C          3.18920        0.89890        0.26050
C          4.64580        0.55740        0.38900
C          5.60660        0.82780       -0.74060
C          5.66430        1.66280        0.50840
H          0.49370        0.51800        0.78360
H          0.26370       -0.94970       -0.18750
H          0.61220        0.59680       -1.00320
H          2.85140        1.33740        1.20640
H          3.03300        1.63810       -0.53370
H          4.80970       -0.32750        0.99670
H          5.23580        1.29300       -1.64650
H          6.39990        0.10750       -0.90970
H          6.49990        1.50880        1.18280
H          5.32930        2.69160        0.44700
