16
qm7 4421 -1602.66
C          2.80720       -0.89730       -1.03460
C          2.47040        0.00660        0.14620
C          3.02740        1.43280        0.00000
C          2.51900        2.31210        1.15340
O          2.79870        3.68930        0.91930
C          4.47140        1.43280        0.00000
N          5.62250        1.43280        0.00000
H          2.32420       -1.87220       -0.90950
H          3.88430       -1.06860       -1.11460
H          2.45390       -0.46240       -1.97400
H          2.84440       -0.45910        1.06850
H          1.37710        0.05210        0.23660
H          2.67280        1.86320       -0.94520
H          2.95290        2.02500        2.11810
H          1.43100        2.22530        1.24010
H          3.74430        3.84470        1.10140
