18
qm7 5381 -1765.47
C          0.81900       -0.03230       -0.52410
C          2.25160        0.00260       -0.03280
C          3.26120       -0.74520       -0.89320
C          3.23730        0.75220       -0.91760
C          2.45410        0.03120        1.50180
C          1.56720        0.78470        2.46250
N          1.50750       -0.66800        2.37330
H          0.76270       -0.07490       -1.61760
H          0.28110        0.86500       -0.20520
H          0.29840       -0.91260       -0.13570
H          2.90400       -1.27770       -1.76800
H          4.09200       -1.23580       -0.39810
H          4.05560        1.28110       -0.44160
H          2.86620        1.24110       -1.81180
H          3.49520       -0.05420        1.81450
H          0.71080        1.32170        2.07770
H          2.01040        1.20050        3.35810
H          2.00100       -1.10950        3.14980
