15
qm7 4722 -1480.88
C          2.61970       -1.10330       -0.23750
C          3.81520       -0.29350        0.23440
N          3.65300        1.07930       -0.23320
C          4.54340        1.94010        0.11360
N          5.68120        1.73180        0.85630
C          4.29920        3.36230       -0.38810
O          5.20000        4.18750       -0.32910
H          2.70440       -2.14230        0.09620
H          2.55090       -1.09790       -1.33090
H          1.68530       -0.68970        0.15750
H          4.72810       -0.73770       -0.17640
H          3.86230       -0.33060        1.32840
H          6.08980        0.80930        0.79480
H          6.36650        2.48210        0.76260
H          3.29210        3.54990       -0.79110
