16
qm7 4615 -1503.28
C          1.31120       -0.06360        1.17140
C          2.07720        0.13880       -0.12270
C          3.20570        1.12620        0.06030
O          2.70410        2.38490        0.18140
C          3.52550        3.50480        0.53070
N          4.43140        0.69940        0.07350
O          5.39810        1.69420        0.19530
H          0.53520       -0.82410        1.03980
H          0.82600        0.86440        1.49210
H          1.97770       -0.38650        1.97800
H          1.41080        0.50260       -0.91240
H          2.49130       -0.81760       -0.46050
H          2.86140        4.35330        0.71960
H          4.17950        3.77030       -0.30420
H          4.08390        3.30910        1.45050
H          6.22890        1.18480        0.15250
