18
qm7 4621 -1709.14
C          1.50190        0.14520        0.25450
C          2.88400       -0.12010       -0.35080
C          2.71660       -0.96010       -1.63460
O          3.97860       -1.26900       -2.22190
N          3.53760        1.16880       -0.67740
C          4.08610        1.85270        0.49650
C          4.98900        1.17080       -0.49070
H          1.57470        0.70860        1.19100
H          0.99270       -0.79840        0.47850
H          0.86530        0.71360       -0.43300
H          3.47960       -0.70180        0.36620
H          2.10920       -0.43780       -2.38240
H          2.22090       -1.90870       -1.40500
H          4.37790       -0.40270       -2.42420
H          3.96590        1.40170        1.47320
H          4.03300        2.93370        0.47670
H          5.55270        1.79480       -1.17460
H          5.48070        0.25090       -0.19560
