15
qm7 366 -1470.05
C          0.99960       -0.05400        0.00270
C          2.52000        0.00000        0.00000
C          3.00200        1.36120        0.00000
C          3.39930        2.48310        0.00000
C          3.88130        3.84430        0.00000
N          2.76580        4.77230       -0.11170
H          0.65770       -1.09290        0.00220
H          0.58560        0.44180       -0.88100
H          0.58880        0.43990        0.88900
H          2.89580       -0.53280       -0.88070
H          2.89900       -0.53400        0.87860
H          4.57190        4.00560       -0.83450
H          4.43050        4.05590        0.92300
H          2.26330        4.57700       -0.97610
H          3.12840        5.71880       -0.19580
