14
qm7 4445 -1383.69
C          1.04450       -0.08230        0.46030
C          2.31780       -0.62890       -0.11250
C          2.54380       -1.94640       -0.25140
C          3.30080        0.39970       -0.57090
O          2.95380        1.53930       -0.87390
N          4.61880        0.02740       -0.52980
O          5.55900        1.06150       -0.74850
H          1.25680        0.55400        1.32570
H          0.37080       -0.87950        0.79260
H          0.50880        0.51220       -0.28740
H          1.80420       -2.67420        0.07140
H          3.43980       -2.34760       -0.71360
H          4.95070       -0.79020       -0.03270
H          4.97860        1.83580       -0.92080
