15
qm7 6623 -1415.52
C          3.94970       -1.21010       -0.41910
S          2.77390        0.00650        0.10790
O          1.80260        0.18520       -0.95300
O          2.36790       -0.31500        1.46070
C          3.77100        1.52180        0.23940
C          3.84560        2.35450       -1.01090
C          2.96610        2.78910        0.13190
H          4.74590       -1.27650        0.32460
H          4.35070       -0.91540       -1.39040
H          3.43440       -2.16900       -0.50230
H          4.60960        1.50120        0.91920
H          3.35640        2.01470       -1.91740
H          4.75220        2.92090       -1.19150
H          3.28150        3.63980        0.72460
H          1.89020        2.72350        0.00010
