10
qm7 4280 -1177.97
C          1.00830       -0.03390        0.00190
C          2.20800        0.02190       -0.00100
C          3.62250        0.09040       -0.00440
N          4.37210        1.17140       -0.00810
C          5.64950        0.66930       -0.01020
C          5.61350       -0.70340       -0.00770
O          4.30610       -1.09050       -0.00390
H         -0.05550       -0.07930        0.00440
H          6.51580        1.31610       -0.01340
H          6.35170       -1.49160       -0.00810
