18
qm7 4898 -1668.68
C          1.03830       -0.23540        0.17870
C          2.51230        0.06010       -0.11790
O          3.32860       -0.44910        0.96290
C          2.98610       -0.62140       -1.42780
N          2.83090       -2.08300       -1.38350
C          2.74420        1.58250       -0.18750
O          4.13490        1.87360       -0.32000
H          0.39310        0.08960       -0.64300
H          0.71560        0.27690        1.09210
H          0.87230       -1.30300        0.35670
H          2.86180       -0.26090        1.79610
H          4.04980       -0.41360       -1.59040
H          2.43010       -0.23120       -2.28650
H          3.28050       -2.40710       -0.52320
H          3.36090       -2.49510       -2.15010
H          2.40830        2.06620        0.73570
H          2.21210        2.03440       -1.03000
H          4.59360        1.24380        0.27140
