12
qm7 6134 -1277.85
O          1.67380       -0.30330       -1.07300
C          2.61150       -0.04930       -0.03540
C          2.91670        1.39110       -0.04620
C          2.22520        2.53230       -0.38690
N          3.00900        3.63940       -0.17690
C          4.13530        3.13410        0.27140
O          4.15820        1.77710        0.38680
H          1.55050       -1.26670       -1.10550
H          3.51060       -0.64500       -0.21960
H          2.16980       -0.34430        0.92080
H          1.21680        2.60580       -0.76830
H          5.03510        3.65940        0.55880
