15
qm7 3297 -1536.06
C          1.61700        2.86190        0.08920
C          2.76130        2.12580       -0.53920
O          2.65090        1.38560       -1.50570
O          3.90800        2.40070        0.13520
C          5.10020        1.78260       -0.36200
C          6.10780        2.86880       -0.58380
C          6.67500        3.14470       -1.76560
H          1.81580        3.93670        0.07900
H          1.46660        2.50730        1.11180
H          0.70560        2.67310       -0.48530
H          4.93920        1.19390       -1.27150
H          5.46960        1.10270        0.41320
H          6.37980        3.46120        0.28650
H          6.42690        2.58340       -2.66180
H          7.39630        3.94980       -1.86150
