17
qm7 6819 -1779.98
C          1.11460        1.20080       -0.31860
C         -0.18140        1.55910        0.40120
C         -1.38160        0.83210       -0.11260
C         -1.51280       -0.49890       -0.19660
C         -0.54540       -1.58000        0.18440
C          0.93110       -1.30650        0.15790
C          1.62870       -0.18500       -0.07590
H          1.88490        1.90030        0.03170
H          1.02080        1.36440       -1.39930
H         -0.08870        1.39960        1.48280
H         -0.35730        2.63420        0.26780
H         -2.22380        1.45290       -0.41300
H         -2.47130       -0.87410       -0.55540
H         -0.71560       -2.41470       -0.50890
H         -0.81720       -1.95040        1.18010
H          1.52320       -2.20640        0.33240
H          2.71520       -0.26940       -0.08820
