12
qm7 849 -1250.37
O          1.03550       -0.04920       -0.10560
C          2.46350        0.00430        0.03520
C          3.23490       -0.70680       -1.03540
C          3.20110        0.79830       -1.01300
C          4.38590        1.50900       -0.63160
C          5.37960        2.10620       -0.31510
H          0.60640        0.62830        0.44540
H          2.87070       -0.03190        1.04110
H          2.67480       -1.21380       -1.81240
H          4.14660       -1.21570       -0.74570
H          2.59780        1.27750       -1.77850
H          6.26180        2.63420       -0.03710
