11
qm7 1138 -1151.39
O          2.73670       -1.10330        0.05930
C          2.23280        0.00950       -0.00100
N          2.91980        1.19050       -0.02860
C          4.36030        1.20940        0.00000
C          4.84230        2.57060        0.00000
C          5.23960        3.69250        0.00000
H          1.14180        0.16510       -0.04040
H          2.41410        2.06260       -0.10280
H          4.72440        0.65810       -0.87370
H          4.69270        0.66820        0.89250
H          5.60030        4.69550        0.00070
