16
qm7 457 -1482.66
C          1.18580       -0.12720       -0.01740
N          2.64530       -0.09080       -0.04170
C          3.21570       -0.57130       -1.29570
C          3.17980        0.90700       -0.96980
C          4.43370        1.63900       -0.60980
N          5.13530        2.00050       -1.83620
H          0.81270        0.61570        0.69510
H          0.85000       -1.11190        0.32360
H          0.71210        0.07070       -0.98670
H          2.54980       -0.94420       -2.06410
H          4.15670       -1.10040       -1.20940
H          2.47950        1.53710       -1.50710
H          5.09100        1.03450        0.02580
H          4.17730        2.54850       -0.05540
H          5.45210        1.14880       -2.29620
H          5.98020        2.51290       -1.58850
