15
qm7 5914 -1433.77
N          1.49410       -2.49760        0.85280
N          2.17310       -1.35540        1.10320
C          2.37650       -0.63840        0.04130
C          3.13010        0.66250        0.11610
O          2.27940        1.65780       -0.44510
C          2.75660        2.93740       -0.46950
C          3.93360        3.40720       -0.03940
H          1.43540       -3.05030        1.71250
H          0.52220       -2.30050        0.59880
H          2.03710       -0.95640       -0.96210
H          4.03960        0.55640       -0.48510
H          3.37070        0.88900        1.16050
H          2.01040        3.58890       -0.91250
H          4.69590        2.78240        0.40880
H          4.15830        4.46590       -0.12980
