11
qm7 6257 -1182.23
O          1.96520       -0.66490       -0.74530
C          2.27220        0.31080       -0.06260
C          1.74980        0.41490        1.29810
N          1.36010        0.54400        2.38690
N          3.10750        1.31930       -0.55860
C          4.10130        1.97980        0.23630
C          2.91390        2.71150       -0.27550
H          5.04950        2.09550       -0.27250
H          4.15320        1.71230        1.28310
H          2.11250        2.96980        0.40350
H          3.02200        3.34480       -1.14650
