14
qm7 784 -1397.35
C          0.92550        0.04990        0.20550
C          2.43460        0.01540       -0.00690
O          2.68540       -0.64700       -1.25070
C          3.02740        1.43280        0.00000
C          4.47130        1.41970       -0.00560
C          5.66170        1.40890       -0.01020
H          0.66910        0.50490        1.16670
H          0.51220       -0.96460        0.17820
H          0.42980        0.61270       -0.59340
H          2.89130       -0.59460        0.78130
H          2.43520       -0.04460       -1.97160
H          2.67580        1.97130        0.88810
H          2.66900        1.98660       -0.87630
H          6.72690        1.39200       -0.01700
