13
qm7 6455 -1376.33
C          0.93580        0.01020       -0.00910
C          2.42660        0.02070       -0.00160
C          3.19850        1.16990        0.00390
S          4.88010        0.84850        0.01200
C          4.60790       -0.83870        0.00800
C          3.26810       -1.13380        0.00060
O          2.85650       -2.41480       -0.00380
H          0.52760        1.02580       -0.00090
H          0.55470       -0.51480        0.87230
H          0.56380       -0.49700       -0.90470
H          2.85660        2.19590        0.00370
H          5.43780       -1.53020        0.01110
H          1.88670       -2.46130       -0.00940
