15
qm7 3663 -1524.83
O          2.12650       -0.33670       -1.37150
C          2.29730        0.06480       -0.02060
C          3.14450        1.32310       -0.00280
C          2.49190        2.60020       -0.60970
C          3.00700        3.34950        0.63500
O          3.15700        4.51820        0.91860
C          3.26930        2.02620        1.37960
H          1.61280       -1.16320       -1.36520
H          2.79420       -0.74350        0.52460
H          1.31010        0.23510        0.42060
H          4.13480        1.12940       -0.44120
H          1.40010        2.59200       -0.67640
H          2.92410        2.93830       -1.55390
H          4.25300        1.95650        1.84840
H          2.48820        1.78850        2.10760
