16
qm7 5738 -1657.07
C          0.97080       -0.01320        0.01190
C          2.48670        0.00370        0.02310
C          3.15190        1.04650        0.95760
C          4.24380       -0.00720        1.23540
C          3.19280       -1.09150        0.88170
C          3.69150       -2.23580        0.15340
N          4.09110       -3.15610       -0.43050
H          0.59980       -0.86440       -0.56810
H          0.57920        0.90140       -0.44510
H          0.55930       -0.08840        1.02400
H          2.87820        0.07020       -1.00310
H          2.56100        1.30810        1.84310
H          3.49430        1.96560        0.47510
H          5.09520        0.05570        0.54640
H          4.62210       -0.02960        2.26120
H          2.60310       -1.38670        1.76120
