10
qm7 12 -879.38
C          1.00400        0.00540        0.00510
C          2.52250        0.01870        0.01220
N          3.01900        1.38830        0.02270
H          0.63580       -1.02560        0.00150
H          0.60620        0.50810       -0.88310
H          0.59930        0.50480        0.89170
H          2.90330       -0.50430       -0.87130
H          2.89210       -0.50740        0.89820
H          2.70260        1.87510       -0.81500
H          4.03720        1.37920       -0.01960
