15
qm7 1836 -1490.57
C          1.02970       -0.28110       -0.47250
N          2.32140        0.02030        0.09160
C          2.93790        1.23670        0.00170
N          2.57080        2.45070       -0.10570
C          1.16150        2.78170       -0.09370
C          4.38390        1.18870        0.04150
C          5.58330        1.14100        0.07540
H          0.85450       -1.36080       -0.42970
H          0.97740        0.02580       -1.52150
H          0.22630        0.19910        0.09140
H          2.96310       -0.76580        0.05750
H          1.05270        3.86880       -0.02230
H          0.64790        2.35480        0.77330
H          0.66820        2.46870       -1.01860
H          6.64750        1.11720        0.10670
