10
qm7 4253 -1155.4
C          0.91860        0.02460       -0.00190
C          2.11900        0.01400       -0.00060
C          3.53910        0.00010        0.00090
C          4.36700        1.09050        0.00190
O          5.66010        0.67420        0.00320
N          5.69610       -0.71430        0.00300
C          4.41520       -1.09770        0.00160
H         -0.14680        0.03420       -0.00300
H          4.21960        2.15990        0.00200
H          4.18590       -2.15380        0.00110
