14
qm7 1741 -1448.23
C          1.07740       -0.13520       -0.21950
N          2.48950       -0.00050        0.11470
C          2.96070        1.38570        0.00000
C          2.41440        2.21510        1.09270
C          1.96930        2.89170        1.98020
C          4.40470        1.38570        0.00000
C          5.59500        1.38570        0.00000
H          0.79320       -1.19070       -0.15940
H          0.86970        0.20680       -1.23870
H          0.43620        0.40990        0.48000
H          3.03160       -0.56990       -0.53250
H          2.62590        1.80150       -0.95960
H          1.57860        3.48450        2.77470
H          6.66020        1.38440        0.01120
