17
qm7 3539 -1700.93
O          0.83990       -0.19930        0.38280
C          2.22200        0.09910        0.11300
C          2.88270        1.13910        1.04650
C          4.16910        0.29340        0.97000
C          3.26840       -0.92760        0.65380
C          3.79240       -1.89040       -0.34620
C          4.88210       -2.61790       -0.07300
H          0.64720       -0.98860       -0.15170
H          2.35430        0.35310       -0.94710
H          2.43910        1.18830        2.04780
H          2.96610        2.15220        0.64440
H          4.84120        0.59740        0.15870
H          4.74280        0.23110        1.89900
H          2.91310       -1.44270        1.55810
H          3.27630       -2.01100       -1.29520
H          5.41510       -2.52420        0.86770
H          5.26950       -3.33110       -0.79660
