13
qm7 3673 -1339.64
O          2.99130       -1.13200       -0.25410
C          2.30850        0.07770        0.04570
C          3.30520        1.14610        0.32420
O          3.55440        2.04810       -0.76070
C          2.87790        2.58980        0.38480
C          3.67140        3.52750        1.11730
C          4.33580        4.31620        1.73310
H          2.32320       -1.76540       -0.56550
H          1.68300       -0.09220        0.92730
H          1.66210        0.33550       -0.80010
H          4.13940        0.81390        0.92710
H          1.82620        2.82320        0.27020
H          4.93120        5.01510        2.27260
