17
qm7 3780 -1648.23
O          2.48320       -1.06270        0.50420
C          2.40510        0.02210       -0.42930
C          3.05090        1.27350        0.18430
O          2.49510        1.48990        1.48140
C          4.54130        1.13210        0.32790
C          5.47750        1.80720       -0.64440
C          5.37170        2.31220        0.76710
H          2.04180       -1.82250        0.08570
H          1.34280        0.20570       -0.61970
H          2.90030       -0.27170       -1.35980
H          2.80800        2.14600       -0.43250
H          2.50280        0.60650        1.90010
H          4.82700        0.16480        0.72780
H          5.06440        2.43000       -1.42990
H          6.38240        1.28140       -0.92620
H          6.19670        2.12130        1.44410
H          4.86550        3.25500        0.94320
