18
qm7 5315 -1779.89
C          0.75640        0.02100        0.08390
C          2.24350        0.02230        0.17850
C          3.11720       -0.84490       -0.69960
C          2.68220       -1.44660       -1.99560
N          2.91260       -0.37190       -2.97770
C          2.70230        0.91300       -2.28650
C          3.12920        0.63720       -0.88200
H          0.35840        0.95960        0.48310
H          0.34730       -0.79910        0.68270
H          0.38200       -0.09240       -0.93660
H          2.55760        0.14620        1.21050
H          3.98810       -1.32130       -0.27050
H          3.27680       -2.32880       -2.25270
H          1.62790       -1.73880       -1.98360
H          3.89710       -0.41260       -3.24050
H          3.31170        1.69600       -2.74880
H          1.65330        1.21760       -2.34870
H          4.00830        1.18950       -0.57920
