16
qm7 5981 -1609.65
O          1.13870        0.06740        0.50490
C          2.30530        0.01890        0.11060
C          3.02870       -1.30250       -0.01950
C          3.99890       -1.27480       -1.19070
C          4.87340       -0.02520       -1.16370
N          4.03490        1.16920       -1.22110
C          3.14750        1.27520       -0.05460
H          2.29590       -2.10350       -0.16090
H          3.56350       -1.48400        0.91910
H          4.62970       -2.17060       -1.16720
H          3.43600       -1.30550       -2.13270
H          5.50820       -0.01100       -0.26990
H          5.53840       -0.03420       -2.03400
H          4.62370        2.00120       -1.26600
H          3.72220        1.43560        0.86360
H          2.47520        2.12640       -0.20090
