17
qm7 1865 -1785.13
C          2.98250       -1.22560       -0.59910
C          2.44310        0.00740        0.11420
C          3.41360        1.19330        0.06670
C          2.88300        2.37740        0.83810
C          2.76710        3.44060        0.02650
C          3.19570        3.07680       -1.29960
C          3.57540        1.79130       -1.30990
H          2.28470       -2.06100       -0.48410
H          3.94660       -1.53000       -0.18000
H          3.11250       -1.04490       -1.67010
H          2.24520       -0.25790        1.16070
H          1.47530        0.27870       -0.32780
H          4.39290        0.90390        0.46610
H          2.64230        2.36440        1.89070
H          2.41790        4.42310        0.30460
H          3.20950        3.75450       -2.13990
H          3.95500        1.26120       -2.17060
