13
qm7 3329 -1389.31
C          3.03760       -1.16430        0.53060
O          2.31540        0.03480        0.28770
C          3.09540        1.13080        0.15780
C          2.56000        2.37430       -0.08040
O          3.54810        3.30430       -0.16970
C          4.72200        2.64490        0.01350
C          4.49840        1.30230        0.21940
H          2.31460       -1.98120        0.61830
H          3.59440       -1.10730        1.47280
H          3.70810       -1.39870       -0.30400
H          1.55210        2.74390       -0.20540
H          5.61090        3.25920       -0.03040
H          5.26180        0.55850        0.39020
