16
qm7 5478 -1574.53
N          1.05750       -0.01340       -0.02970
C          2.51980        0.01120        0.03870
C          3.14820        1.04240       -0.95840
C          2.71100        0.05200       -2.09540
C          3.22170       -0.95140       -0.99730
O          4.64790       -0.69490       -0.86420
C          4.66040        0.74960       -0.82900
H          0.61460        0.74230        0.49230
H          0.64960       -0.87540        0.33290
H          2.92060        0.00110        1.05690
H          2.79940        2.07330       -0.97730
H          3.30070        0.08920       -3.01740
H          1.65310        0.01770       -2.37260
H          2.94850       -2.00430       -1.04910
H          5.23800        1.13630       -1.67370
H          5.07660        1.09520        0.12180
