13
qm7 6402 -1278.26
O          1.29660       -0.11720        1.13070
N          2.56510        0.05560        0.56910
C          2.77120        1.31500        0.03770
N          1.79670        2.12870       -0.23070
C          4.19730        1.74660       -0.27940
C          5.05190        1.71980        0.91920
C          5.75000        1.70420        1.89630
H          0.84250       -0.68080        0.47430
H          3.32700       -0.30010        1.14850
H          0.94150        1.65930        0.09120
H          4.18450        2.75290       -0.71200
H          4.59310        1.06350       -1.03930
H          6.36810        1.70580        2.76500
