17
qm7 4495 -1795
C          0.56520        1.22340        0.66960
C         -0.85010        0.75140        0.42760
C         -0.86050       -0.01170       -0.85490
C          0.54900       -0.01920       -1.40440
C          1.25880        0.00040       -0.01110
C          0.56560       -1.20360        0.70360
C         -0.84940       -0.73930        0.44870
H          0.78030        2.16770        0.16040
H          0.79840        1.29720        1.73590
H         -1.67780        1.34520        0.76420
H         -1.69800       -0.02140       -1.52550
H          0.76570       -0.92730       -1.97430
H          0.76530        0.87260       -1.99930
H          2.34860        0.00050       -0.02090
H          0.79890       -1.24730        1.77130
H          0.78110       -2.16130        0.22100
H         -1.67730       -1.32330        0.80140
