16
qm7 4946 -1519.2
C          0.62280        0.79720        0.68880
C          1.30350       -0.41960        0.09470
O          2.66980       -0.42320        0.51580
N          3.30790       -1.53890       -0.06690
C          3.86080       -2.46470        0.77240
C          3.33800       -2.50350        2.18300
O          4.71430       -3.25230        0.36770
H         -0.43140        0.83400        0.40030
H          1.11340        1.71620        0.35100
H          0.69070        0.78290        1.78160
H          1.25530       -0.37660       -0.99940
H          0.80710       -1.33260        0.44210
H          3.82150       -1.36550       -0.92440
H          2.25340       -2.64050        2.17890
H          3.59960       -1.58030        2.70650
H          3.79100       -3.34550        2.71470
