11
qm7 4201 -1203.34
C          1.13000       -0.01460        0.08080
C          2.45200       -0.00880       -0.11190
O          3.16670       -1.13520       -0.46300
C          4.39770       -0.55370       -0.53580
N          4.56060        0.69910       -0.29260
C          3.32660        1.16610        0.00830
N          3.11510        2.38480        0.31570
H          0.58100        0.88010        0.35040
H          0.56370       -0.93330       -0.03310
H          5.18640       -1.26610       -0.81600
H          2.12600        2.53900        0.51240
