17
qm7 1957 -1663.65
N          0.97980       -0.05230        0.31950
C          2.42130        0.02700        0.09800
C          2.79480        1.31070       -0.70230
N          4.15890        1.26320       -1.25910
C          4.26490        0.14650       -2.20700
C          3.72020       -1.14510       -1.66830
C          2.89280       -1.21120       -0.61100
H          0.65680        0.80700        0.75980
H          0.78120       -0.80250        0.97800
H          2.92170        0.06660        1.07360
H          2.08190        1.48410       -1.52010
H          2.71730        2.18180       -0.04030
H          4.81280        1.08450       -0.49780
H          5.32300        0.01220       -2.45860
H          3.74670        0.39790       -3.14000
H          4.01480       -2.05700       -2.17920
H          2.54680       -2.17710       -0.25720
