19
qm7 3130 -1781.97
C         -0.66630        5.03970       -0.10990
C         -0.12850        4.08480        0.94070
C          0.45850        2.82470        0.31560
O          0.96690        2.00620        1.36670
C          1.54820        0.80650        0.87110
O          2.73670        1.03340        0.12060
C          3.77340        1.57690        0.92820
H         -1.08540        5.93050        0.36740
H         -1.45580        4.56730       -0.70220
H          0.12880        5.36110       -0.78970
H         -0.92810        3.80930        1.63900
H          0.63770        4.58730        1.54270
H         -0.31670        2.27880       -0.23440
H          1.26620        3.09190       -0.37510
H          0.83020        0.27920        0.23330
H          1.76820        0.15050        1.72060
H          4.67560        1.65600        0.31660
H          3.98610        0.92470        1.77960
H          3.50590        2.57880        1.27660
