14
qm7 3956 -1495.25
C          1.01670        0.03190        0.06680
C          2.49930       -0.01740       -0.01940
C          3.25870       -1.11680       -0.10970
C          4.65260       -0.65850       -0.16980
O          5.63040       -1.37320       -0.25600
N          4.62800        0.71050       -0.11050
C          3.30590        1.23830       -0.01200
H          0.57840       -0.97090        0.04050
H          0.60470        0.60150       -0.77190
H          0.70480        0.51200        0.99960
H          2.97070       -2.15220       -0.13730
H          5.48230        1.24910       -0.13680
H          3.10500        1.87650       -0.87630
H          3.20800        1.79990        0.92030
