16
qm7 5156 -1533.46
C          3.49230       -1.24190       -1.16280
N          3.24540       -0.50660        0.07300
C          3.45670        0.94010       -0.09730
C          4.93650        1.31110       -0.04810
O          5.82570        0.52040        0.28280
C          5.26580        2.76570       -0.35960
O          6.66500        2.99540       -0.42490
H          3.30550       -2.30650       -0.99150
H          4.52530       -1.13440       -1.50700
H          2.81440       -0.91500       -1.95760
H          3.90890       -0.84130        0.77910
H          2.96610        1.45960        0.73240
H          3.01490        1.29760       -1.03330
H          4.84670        3.39740        0.42840
H          4.82960        3.03870       -1.32390
H          7.08830        2.25460        0.05550
