18
qm7 5138 -1710.8
C          0.81240       -0.32520        0.00670
N          2.25570       -0.17140        0.12030
C          2.65180        1.23860       -0.00980
C          4.18020        1.38390       -0.00960
O          4.70380        0.77960       -1.19830
C          6.05700        0.80970       -1.37050
C          6.99780        1.34230       -0.58100
H          0.55120       -1.38390        0.09350
H          0.44280        0.03460       -0.95870
H          0.29620        0.20900        0.81010
H          2.71840       -0.69970       -0.62340
H          2.23910        1.81380        0.82650
H          2.25730        1.64760       -0.94730
H          4.60300        0.90250        0.88160
H          4.43100        2.45190       -0.00180
H          6.30990        0.30930       -2.29960
H          6.77350        1.84500        0.35090
H          8.04300        1.27720       -0.86640
