19
qm7 1239 -1784.25
C          0.97130        0.02740       -0.14540
C          2.48240       -0.08050       -0.02590
C          3.13930        1.29520        0.01990
C          4.64480        1.15450        0.13880
C          5.43360        0.95350       -1.13600
N          5.16310        1.18670        1.33390
N          6.50520        1.05110        1.40150
H          0.52050       -0.96950       -0.16580
H          0.68750        0.54770       -1.06550
H          0.54870        0.57400        0.70350
H          2.87320       -0.65760       -0.87270
H          2.73540       -0.64450        0.88020
H          2.76690        1.86600        0.87830
H          2.90680        1.86950       -0.88340
H          4.76260        0.89120       -1.99690
H          6.00830        0.02510       -1.07810
H          6.11150        1.79890       -1.28430
H          6.77560        0.89310        2.37600
H          6.96710        1.92750        1.14660
