15
qm7 5218 -1474.93
C          1.19990        0.50200       -0.56990
N          2.48210        0.61210        0.07130
C          3.62600        0.14080       -0.53230
O          3.67170       -0.28990       -1.67880
N          4.71290        0.23010        0.34100
C          5.71880       -0.79480        0.34800
C          6.01570        0.56520       -0.16200
H          0.84440       -0.52730       -0.46860
H          1.28160        0.75440       -1.63070
H          0.50350        1.18390       -0.07590
H          2.53240        0.70040        1.07590
H          5.56590       -1.60080       -0.35780
H          6.04210       -1.07130        1.34110
H          6.55170        1.26330        0.46560
H          6.07500        0.72670       -1.23110
