13
qm7 2159 -1378.05
C          0.56190        1.23650        0.66810
C         -0.85450        0.76120        0.43420
C         -0.82810        0.00710       -0.85990
O          0.56060        0.01040       -1.31500
C          1.21810        0.00280       -0.01080
O          0.57570       -1.09150        0.71440
C         -0.81690       -0.73240        0.46200
H          0.76760        2.17230        0.14150
H          0.79240        1.30740        1.73450
H         -1.69190        1.34250        0.76120
H         -1.67190       -0.04130       -1.52650
H          2.30680       -0.05830       -0.05210
H         -1.65220       -1.32890        0.78650
