14
qm7 4237 -1435.86
C          2.03950       -0.85810       -0.77200
C          1.96500        0.47940       -0.79380
C          2.72510        1.38950        0.06220
C          4.12150        1.74710       -0.30050
N          3.04630        2.67910       -0.48070
C          2.95970        3.80660        0.32100
O          3.24910        3.89370        1.50670
H          1.43290       -1.46030       -1.44090
H          2.70320       -1.37680       -0.08740
H          1.27350        0.93810       -1.49910
H          2.44970        1.38820        1.11280
H          4.54760        1.39900       -1.23100
H          4.82140        1.98550        0.49030
H          2.58180        4.66270       -0.26100
