16
qm7 4613 -1505.83
C          3.23670       -0.88730       -1.05640
C          2.91880       -0.05170        0.17380
C          3.10160        1.44710       -0.05510
O          2.62260        2.14790        1.08820
C          4.56110        1.79230       -0.29820
N          5.34790        2.08530        0.68940
O          6.63110        2.31850        0.18330
H          3.03770       -1.94480       -0.85500
H          4.28940       -0.79520       -1.34170
H          2.62040       -0.58270       -1.90820
H          3.54560       -0.38400        1.01070
H          1.88340       -0.24470        0.48080
H          2.52000        1.78250       -0.91990
H          3.35580        2.13620        1.73500
H          4.92230        1.73400       -1.34010
H          7.13810        2.54810        0.98580
