15
qm7 4582 -1438.88
C          0.81230       -0.08740       -0.04970
C          2.27380       -0.38120        0.09960
C          2.80750       -1.58400       -0.16310
O          3.01100        0.69610        0.63830
C          4.23860        0.95390        0.12960
N          4.98950        1.85640        0.67080
N          6.19450        1.98800        0.05670
H          0.66100        0.71560       -0.77740
H          0.39120        0.23090        0.90980
H          0.24920       -0.96270       -0.38910
H          2.19500       -2.39820       -0.53920
H          3.85480       -1.80240        0.01200
H          4.51360        0.35430       -0.75310
H          6.57710        2.90980        0.28910
H          6.86710        1.33930        0.47690
