15
qm7 2622 -1559.03
C          1.00000        0.00000        0.00000
C          2.19020        0.00000        0.00000
C          3.63420        0.00000        0.00000
C          4.20700        1.12460        0.84010
C          5.58120        0.60190        1.18130
O          5.44950       -0.81490        1.33040
C          4.24190       -1.22880        0.66580
H         -0.06600        0.00060        0.00070
H          4.02190        0.08330       -1.02300
H          3.62630        1.26070        1.76210
H          4.23540        2.08710        0.32090
H          6.29140        0.79000        0.36740
H          5.98180        1.03620        2.10030
H          4.49030       -2.00540       -0.06490
H          3.58440       -1.67450        1.42060
