16
qm7 5581 -1638.57
C          1.04170        0.04200        0.54790
C          2.29080       -0.04380        0.07180
C          3.03900       -1.31590       -0.18740
C          4.08950       -0.92660       -1.18580
C          5.26400       -0.07720       -0.78970
N          4.09590        0.53860       -1.41790
C          3.11750        1.10140       -0.45510
H          0.53970        1.00000        0.64140
H          0.48880       -0.84400        0.84300
H          2.38480       -2.09280       -0.59520
H          3.50780       -1.68610        0.73040
H          4.14310       -1.55130       -2.06580
H          5.45260        0.11950        0.25860
H          6.15270       -0.12550       -1.40800
H          3.62960        1.61910        0.36500
H          2.48640        1.82910       -0.97640
