11
qm7 5599 -1234.76
N          1.09740       -0.04810       -0.27180
C          2.34400        0.02000       -0.00870
N          3.12740       -1.04930        0.21490
C          4.39480       -0.64810        0.46490
O          5.36060       -1.34450        0.70790
C          4.40600        0.81760        0.39040
C          3.16540        1.22030        0.10400
H          0.78650       -1.02220       -0.28720
H          2.85660       -2.01630        0.20760
H          5.28650        1.41380        0.54750
H          2.79450        2.22130       -0.02780
