15
qm7 2752 -1578.07
C          1.12420       -1.20760        0.58020
C          2.45500       -0.58240        0.30540
C          2.72710        0.71260        0.05720
C          1.75790        1.78930        0.03100
C          0.96960        2.12910        1.05890
C          4.15140        1.06300       -0.26290
O          5.06770        0.25160       -0.32500
H          0.94840       -2.01950       -0.13340
H          0.28660       -0.51130        0.49470
H          1.11600       -1.63380        1.58840
H          3.27760       -1.29880        0.29120
H          1.71830        2.37570       -0.88540
H          0.99280        1.59350        2.00350
H          0.27820        2.96190        0.97500
H          4.32970        2.13650       -0.44780
