15
qm7 5874 -1475.08
N          2.51440       -0.98140        0.94930
C          2.19680       -0.11050       -0.05550
O          1.18130       -0.26540       -0.72870
C          3.13280        1.08890       -0.21240
N          4.49510        0.72780        0.23700
C          5.45790        0.60310       -0.85630
C          5.45480        1.81320        0.03780
H          3.45660       -0.94270        1.32280
H          1.97380       -1.83110        1.03400
H          2.73600        1.89310        0.41790
H          3.09280        1.41410       -1.25910
H          5.11700        0.71330       -1.87940
H          6.24380       -0.13010       -0.71510
H          6.23370        1.89540        0.78570
H          5.09790        2.75400       -0.36270
