19
qm7 1449 -1767.82
C          1.46140       -0.16470        1.31320
C          2.90310       -0.22900        0.84530
C          3.10880        0.70890       -0.31100
N          3.87340        1.74600       -0.18920
N          3.93760        2.48890       -1.32660
C          2.94450        3.57180       -1.41580
C          5.26700        3.06080       -1.58180
H          1.30060       -0.85070        2.15020
H          0.77370       -0.43970        0.50680
H          1.20090        0.84680        1.64130
H          3.14340       -1.24170        0.50720
H          3.58000        0.03480        1.66420
H          2.57400        0.47100       -1.24900
H          1.93120        3.16770       -1.30970
H          2.98780        4.06560       -2.39290
H          3.09490        4.32170       -0.63110
H          6.02050        2.26550       -1.59710
H          5.55160        3.78460       -0.80930
H          5.30390        3.55310       -2.56050
