15
qm7 3538 -1548.73
O          0.91050        0.00370        0.09400
C          2.34610        0.00930        0.01780
C          3.06350        1.05360        0.90150
C          4.12780       -0.02010        1.23390
C          3.07320       -1.08140        0.83560
C          5.32140        0.00820        0.40740
C          6.30570        0.03150       -0.27990
H          0.63400       -0.75880       -0.44290
H          2.67400        0.04770       -1.02890
H          2.47870        1.37610        1.77160
H          3.41780        1.94590        0.37620
H          4.38030       -0.05160        2.30080
H          3.43520       -1.93640        0.25620
H          2.49150       -1.46210        1.68400
H          7.17880        0.05360       -0.89080
