18
qm7 2048 -1775.27
N          1.93140       -0.73100       -1.13070
C          2.69000       -0.35310        0.05110
C          2.93170        1.12020        0.03060
C          4.14940        1.69010        0.02510
C          4.38320        3.17270       -0.00110
C          5.15130        3.62070        1.20800
C          6.35700        4.20330        1.16540
H          1.78900       -1.73900       -1.12350
H          2.49620       -0.53360       -1.95610
H          3.62810       -0.91750        0.08410
H          2.11710       -0.61020        0.94810
H          2.04300        1.74760        0.02720
H          5.03850        1.06270        0.02460
H          3.43370        3.72020       -0.03320
H          4.92310        3.42290       -0.92210
H          4.67540        3.46380        2.17410
H          6.86930        4.38750        0.22630
H          6.85760        4.51010        2.07870
