15
qm7 6881 -1553.4
C          0.92820       -0.06270       -0.00450
C          2.40640        0.06060       -0.00500
C          3.24600        1.14940       -0.01070
N          2.86510        2.43040       -0.01710
C          4.57790        0.69110       -0.01000
C          4.52880       -0.68520       -0.00450
N          3.20960       -1.05810       -0.00210
H          0.44040        0.91640        0.00890
H          0.59060       -0.61790        0.87670
H          0.58850       -0.59530       -0.89880
H          3.53040        3.19430        0.02730
H          1.89360        2.71330        0.03310
H          5.47860        1.28910       -0.01440
H          5.31510       -1.42750       -0.00330
H          2.87540       -2.01270        0.00040
