17
qm7 5181 -1590.29
C          1.23910       -0.13150        0.49670
N          2.45130        0.20400       -0.24870
C          2.84930       -0.86980       -1.15750
N          2.37640        1.46050       -0.90180
C          1.27580        1.79200       -1.79000
C          3.29160        2.43620       -0.53340
O          3.30870        3.59620       -0.93110
H          0.98030        0.67420        1.19270
H          1.39970       -1.03170        1.10010
H          0.38060       -0.30930       -0.16030
H          3.03760       -1.79290       -0.59830
H          3.78400       -0.61350       -1.66870
H          2.08850       -1.07900       -1.91700
H          0.95300        0.91210       -2.35190
H          1.58260        2.56990       -2.49580
H          0.44530        2.17560       -1.18940
H          4.04290        2.05870        0.18120
