17
qm7 3575 -1729.77
O          0.94990        0.10280       -0.26380
C          2.31630       -0.01180        0.11640
C          3.08190        1.26260       -0.26180
C          3.43960        1.28450       -1.74850
C          4.27100        0.05970       -2.14030
C          3.74420       -1.21580       -1.55100
C          2.84680       -1.24160       -0.55340
H          0.58740        0.87530        0.20000
H          2.34890       -0.14600        1.20340
H          2.48690        2.15140       -0.02280
H          4.00780        1.31810        0.32370
H          3.99650        2.19790       -1.98710
H          2.51860        1.30980       -2.34560
H          5.30760        0.19220       -1.80970
H          4.28900       -0.02390       -3.23270
H          4.09820       -2.14960       -1.98010
H          2.46800       -2.19510       -0.19600
