17
qm7 429 -1623.21
C          0.86110       -0.29260       -0.03100
C          2.38020       -0.12640        0.05360
N          3.02740       -1.14220       -0.78630
C          2.84410        1.28000       -0.38340
C          2.34580        2.37790        0.51780
C          1.58530        3.40100        0.10800
H          0.34950        0.39520        0.64960
H          0.56270       -1.30810        0.25150
H          0.49350       -0.10230       -1.04510
H          2.69440       -0.30130        1.09030
H          2.72890       -1.02680       -1.75410
H          2.70990       -2.06870       -0.50410
H          2.53720        1.46690       -1.42060
H          3.94100        1.31820       -0.37240
H          2.64690        2.32810        1.56240
H          1.26890        3.49990       -0.92580
H          1.26480        4.16920        0.80550
