12
qm7 6432 -1250.5
C          1.00920        0.00870        0.01920
C          2.50480        0.00070        0.07140
C          3.25160        1.11470        0.00550
C          4.67930        0.76120        0.00370
O          5.60290        1.55200       -0.04940
S          4.81540       -0.99530        0.04280
N          3.16220       -1.21170        0.19490
H          0.60950        1.02690       -0.03140
H          0.59390       -0.47060        0.91160
H          0.65650       -0.53580       -0.86270
H          2.91930        2.13420       -0.08130
H          2.70230       -2.01380       -0.23230
