11
qm7 5924 -1163.8
O          0.89640       -1.26100       -0.00310
C         -0.46560       -1.51520        0.00010
C         -1.46900       -0.64730        0.00160
C         -1.30150        0.80610       -0.00240
N         -0.27520        1.57640       -0.00290
N          1.03720        1.16450        0.00110
C          1.48710       -0.04170       -0.00070
H         -0.62070       -2.58780        0.00160
H         -2.49420       -1.00100        0.00430
H         -2.26940        1.33860       -0.00570
H          2.57760       -0.19850        0.00140
