15
qm7 6874 -1541.17
C          1.00110       -0.09100       -0.12250
C          2.50730        0.04200        0.04960
N          3.16190       -1.24300       -0.41620
C          4.01550       -0.83800       -1.31250
N          4.07070        0.48900       -1.56120
C          3.14150        1.13570       -0.80910
C          2.82190        2.43290       -0.82550
H          0.48100        0.79630        0.25260
H          0.62670       -0.96050        0.42830
H          0.72790       -0.22690       -1.17490
H          2.76820        0.18850        1.10440
H          4.68910       -1.48830       -1.89030
H          4.59960        0.93640       -2.29290
H          3.32590        3.13130       -1.48330
H          2.04620        2.82630       -0.17700
