18
qm7 5076 -1733.09
C          2.94490       -1.17470        0.95350
N          2.78630        0.17420        1.48170
C          3.14170        1.20730        0.48870
C          2.70570        2.57340        1.00950
C          4.65880        1.22630        0.25850
C          5.12330        1.20880       -1.17380
O          5.46430        1.22050        1.19240
H          2.64100       -1.89860        1.71490
H          3.98250       -1.39170        0.68300
H          2.30740       -1.33190        0.07780
H          3.40850        0.29020        2.28770
H          2.62720        1.00980       -0.45870
H          3.18920        2.81690        1.96310
H          1.62120        2.60800        1.16000
H          2.97370        3.36200        0.29860
H          4.61320        1.99270       -1.73770
H          4.90950        0.22990       -1.60950
H          6.19980        1.39320       -1.21350
