17
qm7 2780 -1726.17
C          2.46240       -1.12970        2.24440
C          3.21660       -1.24350        0.94770
C          3.49980       -2.43760        0.40040
C          3.60540        0.05130        0.27920
C          4.58320        0.85110        1.12660
C          5.95690        0.26980        1.33910
O          4.26380        1.93160        1.62760
H          3.08980       -0.66980        3.01450
H          2.14330       -2.10830        2.61950
H          1.56530       -0.51690        2.11140
H          3.20390       -3.36730        0.87900
H          4.02750       -2.52390       -0.54720
H          2.71130        0.66070        0.10470
H          4.06910       -0.11320       -0.70050
H          6.41360        0.04120        0.37370
H          5.88920       -0.63270        1.95020
H          6.58560        0.99890        1.85830
