13
qm7 3058 -1426.27
C          0.86840        0.10390       -0.00460
C          2.36620        0.03910       -0.00490
C          2.94920       -1.33160       -0.01090
O          2.25020       -2.33970       -0.01540
C          3.13900        1.13800        0.00000
C          4.54500        1.13800        0.00000
C          5.73520        1.13800        0.00000
H          0.50300        1.13660       -0.00000
H          0.46260       -0.39350        0.88260
H          0.46260       -0.38560       -0.89610
H          4.04820       -1.40320       -0.01120
H          2.66220        2.11550        0.00430
H          6.80100        1.14130        0.00000
