17
qm7 2166 -1693.51
C          0.70580        1.07610       -0.43450
C         -0.52250        0.30100       -0.04200
C          0.81570       -0.38350       -0.08550
C          1.57420       -0.89280        1.11750
C          1.44010       -0.25870        2.50950
O          1.31870       -1.56380        3.13150
C          1.09470       -2.16560        1.83290
H          0.81720        1.35930       -1.47500
H          1.08610        1.81080        0.26580
H         -1.24020        0.06200       -0.81950
H         -0.97670        0.51890        0.91690
H          0.98330       -1.07350       -0.90800
H          2.63440       -0.97890        0.83520
H          0.54780        0.34530        2.69740
H          2.32540        0.27880        2.86180
H          1.71820       -3.05020        1.67820
H          0.04030       -2.42610        1.69620
