12
qm7 1581 -1268.25
C          1.17590       -0.32160       -0.22770
C          2.43280       -0.43210        0.21150
N          3.43720        0.48270        0.03360
C          4.74410        0.44760        0.44840
N          5.37540       -0.45440        1.11540
C          5.59230        1.58370        0.10660
N          6.20200        2.52400       -0.20430
H          0.45210       -1.10770       -0.03220
H          0.83170        0.54180       -0.78730
H          2.71900       -1.32200        0.76750
H          3.15840        1.31120       -0.48760
H          4.74370       -1.22680        1.33110
