13
qm7 2158 -1359.16
C         -1.29570        0.64980        0.06650
C         -1.01910       -0.78880       -0.15200
O         -0.30380       -1.46310        0.88770
C          0.45110       -1.09720       -0.27540
C          1.14600        0.26880       -0.26910
O          0.99320        1.08720        0.89950
C          0.03100        1.27530       -0.14240
H         -2.01440        1.01890       -0.67220
H         -1.68980        0.84590        1.06860
H         -1.75750       -1.33680       -0.71400
H          0.77570       -1.87050       -0.95500
H          1.96550        0.46800       -0.94460
H          0.04090        2.19900       -0.69810
