16
qm7 4571 -1609.47
C          0.90200        0.22170        0.10900
C          2.29080       -0.23450       -0.30720
C          3.35180        0.81260       -0.01970
O          3.09470        1.89430        0.50840
C          4.77110        0.53250       -0.37940
C          5.20520       -0.60200       -0.93810
N          6.49830       -0.89080       -1.29000
H          0.16420       -0.55640       -0.10990
H          0.60960        1.13090       -0.42660
H          0.86360        0.43710        1.18210
H          2.28690       -0.44580       -1.38190
H          2.54260       -1.14890        0.23990
H          5.45420        1.34520       -0.15450
H          4.53010       -1.41970       -1.17900
H          7.20470       -0.29500       -0.86120
H          6.73910       -1.87950       -1.24980
