17
qm7 3335 -1639.23
C          1.90190       -0.51610       -1.24210
O          2.19010        0.08990        0.01010
C          3.06110        1.23830       -0.03330
C          2.43590        2.56310       -0.52060
C          3.16820        3.28720        0.62460
O          4.38840        3.97220        0.27710
C          3.31610        1.92490        1.32660
H          1.24740       -1.37450       -1.07080
H          2.82590       -0.86270       -1.71370
H          1.39060        0.19440       -1.89760
H          4.00200        0.99890       -0.54730
H          1.34360        2.60470       -0.44220
H          2.72700        2.86490       -1.53080
H          2.51860        3.97940        1.17160
H          4.95720        3.31320       -0.15520
H          4.29760        1.72520        1.76640
H          2.54680        1.73070        2.08240
