9
qm7 6533 -1019.74
C          0.90150        0.10120        0.00190
C          2.10020        0.06090       -0.00060
C          3.52370        0.01900       -0.00350
N          4.26650        1.10560       -0.00890
C          5.59450        0.70950       -0.01030
N          5.91670       -0.58380       -0.00650
S          4.46490       -1.41770       -0.00050
H         -0.16380        0.14590        0.00400
H          6.38720        1.44760       -0.01470
