13
qm7 4115 -1366.5
C          0.99990        0.00720       -0.00410
C          2.48030        0.04530       -0.00600
N          3.24580        1.11820       -0.00920
C          4.53630        0.65050       -0.01040
C          4.55650       -0.72400       -0.00780
O          5.51830       -1.63500       -0.00770
N          3.24230       -1.09600       -0.00500
H          0.58840        1.02100        0.00810
H          0.62890       -0.52180        0.87910
H          0.62680       -0.50150       -0.89830
H          5.37490        1.33390       -0.01300
H          6.36760       -1.15700       -0.01010
H          2.90360       -2.04640       -0.00270
