8
qm7 122 -852.42
S         -0.49560       -1.39820       -0.00180
C         -1.29850        0.11830       -0.00120
C         -0.36940        1.13650       -0.00090
N          0.95330        0.73890       -0.00120
C          1.01000       -0.57470       -0.00170
H         -2.37660        0.18920       -0.00100
H         -0.60370        2.19350       -0.00060
H          1.94910       -1.11320       -0.00200
