16
qm7 3849 -1560.67
C          0.75520        1.05890       -0.49740
N         -0.41540        0.40080        0.07570
C          0.80110       -0.38470       -0.07650
C          1.55430       -0.87070        1.13150
C          1.33180       -0.28950        2.53740
O          1.38390       -1.62150        3.12110
C          1.15060       -2.19150        1.80690
H          0.71380        1.29290       -1.55370
H          1.23490        1.80110        0.12850
H         -1.09750        0.17250       -0.65150
H          0.80920       -1.14120       -0.85380
H          2.62560       -0.87810        0.87970
H          0.36460        0.18280        2.73590
H          2.13750        0.35040        2.90890
H          1.81050       -3.03940        1.60410
H          0.10580       -2.49620        1.68780
