20
qm7 1359 -1911.76
C          1.33740       -0.78660        1.52910
C          2.46440       -0.70740        0.50990
C          2.96730        0.72720        0.34480
N          4.01090        0.77140       -0.68010
C          4.57080        2.11460       -0.84900
C          5.89500        2.43460       -0.21670
C          5.79450        2.27880       -1.70590
H          0.99780       -1.82090        1.63810
H          0.48250       -0.18030        1.21400
H          1.66860       -0.43150        2.50970
H          2.10180       -1.09550       -0.45030
H          3.28680       -1.35790        0.83260
H          3.36390        1.08770        1.30070
H          2.13430        1.37940        0.05740
H          3.63090        0.43040       -1.56290
H          3.84300        2.92230       -0.91100
H          6.40150        1.65410        0.33930
H          6.03840        3.43090        0.18340
H          5.86800        3.17080       -2.31630
H          6.23690        1.39620       -2.15210
