11
qm7 190 -1128.5
C         -1.21130        0.01590       -0.15330
C         -0.37340       -1.23750        0.08660
C          0.99760       -0.69410       -0.02130
C          0.92120        0.62780       -0.08950
O         -0.34560        1.16910       -0.06160
H         -1.65860        0.00720       -1.15410
H         -2.01720        0.11360        0.58110
H         -0.58610       -2.01000       -0.65740
H         -0.54970       -1.65200        1.08440
H          1.90760       -1.27400       -0.00590
H          1.72140        1.34860       -0.13420
