11
qm7 1984 -1292.91
N          0.94050       -0.05690       -0.00840
C          2.09780        0.00120       -0.00400
C          3.51940        0.03710        0.00140
C          4.34840        1.13960        0.00410
C          5.68390        0.66590        0.00930
C          5.63150       -0.71040        0.00960
N          4.31120       -1.08310        0.00470
H          4.03020        2.17510        0.00250
H          6.58670        1.26480        0.01250
H          6.41730       -1.45470        0.01290
H          3.97210       -2.03720        0.00380
