13
qm7 5831 -1344.27
N          1.09010       -0.26100        0.04930
C          2.45770       -0.29180        0.10720
N          3.12230       -1.39720        0.02050
C          3.20650        1.03210        0.31400
O          2.58100        1.97500        0.78380
C          4.63180        1.09050       -0.09610
C          5.33890        2.21930        0.04040
H          0.70510        0.61520        0.40560
H          0.61510       -1.06990        0.42850
H          2.46340       -2.16490       -0.13560
H          5.07020        0.18880       -0.50690
H          4.89730        3.12180        0.45430
H          6.37980        2.26040       -0.26070
