19
qm7 1220 -1814.24
C          0.97870        0.02100        0.10940
C          2.47790       -0.10380       -0.16930
C          2.69880       -0.90120       -1.45690
C          3.11450        1.29250       -0.24710
C          4.62730        1.23110       -0.16990
N          5.23440        1.19620        1.04400
N          5.36160        1.18740       -1.23190
H          0.80110        0.54330        1.05530
H          0.51250       -0.96710        0.18300
H          0.47160        0.57720       -0.68620
H          2.93100       -0.66490        0.65810
H          2.30640       -0.36590       -2.32810
H          2.19530       -1.87220       -1.40310
H          3.76220       -1.09430       -1.62630
H          2.77000        1.90850        0.59200
H          2.81760        1.80740       -1.16830
H          4.72600        0.78460        1.81610
H          6.20720        0.91400        0.98390
H          4.77710        1.21880       -2.07320
