12
qm7 5962 -1331.92
O          1.09630       -0.00370        0.47340
C          2.26930       -0.01060        0.17140
C          3.31370        1.09010       -0.06800
C          4.23420       -0.01270       -0.66230
C          3.28370       -1.12310       -0.13340
C          4.37550        0.02800       -2.10360
N          4.48400        0.06060       -3.25790
H          3.67990        1.53870        0.86070
H          2.98430        1.87660       -0.75190
H          5.21370       -0.04050       -0.16670
H          2.93370       -1.85870       -0.86220
H          3.63690       -1.63550        0.76680
