17
qm7 1878 -1657.96
N          1.45790       -0.38890       -0.39380
C          2.79090       -0.00420        0.06900
C          3.67700       -1.06990        0.65570
C          4.02340       -0.45910       -0.66690
N          4.98240        0.66190       -0.77140
C          4.21390        1.87270       -0.42750
C          3.03710        1.43260        0.45530
H          1.15790        0.20750       -1.16400
H          0.76890       -0.27120        0.34850
H          3.31810       -2.09360        0.65170
H          4.28270       -0.82880        1.51970
H          3.90100       -1.06580       -1.55820
H          5.72680        0.53360       -0.08560
H          4.83740        2.62540        0.06490
H          3.83200        2.31120       -1.35690
H          3.30350        1.49680        1.51690
H          2.16410        2.07110        0.28160
