11
qm7 3181 -1259.44
C          0.96630       -0.03130       -0.00610
C          2.46470       -0.10070        0.00140
O          3.08910       -1.15420        0.00580
C          3.17830        1.15360        0.00020
C          3.77100        2.19780       -0.00030
C          4.52580        3.53050       -0.00060
C          5.11700        4.57430       -0.00080
H          0.61630        1.00490        0.00900
H          0.57870       -0.54380        0.87840
H          0.58880       -0.51540       -0.91070
H          5.64530        5.49920       -0.00070
