13
qm7 1561 -1364.49
C          0.80510        0.10120        0.06740
C          2.13800       -0.01120        0.02200
N          2.89740       -1.15590       -0.01410
C          2.51560       -2.45930       -0.00810
N          3.29840       -3.47980       -0.04860
C          2.93100        1.17430        0.00600
C          3.60290        2.17030       -0.00760
H          0.32130        1.07320        0.09220
H          0.15280       -0.76370        0.08070
H          3.89480       -0.98340       -0.05150
H          1.42680       -2.62240        0.03640
H          4.27440       -3.17980       -0.08790
H          4.19300        3.05740       -0.01870
