17
qm7 5164 -1562.12
C          1.07950       -0.18090        0.38210
N          2.42890       -0.18000       -0.19900
C          2.87050       -1.56830       -0.49050
C          2.04820       -2.28590       -1.57150
O          1.99410       -1.51280       -2.76740
N          2.60790        0.73190       -1.19450
C          3.76480        1.30810       -1.13920
H          0.84620        0.81430        0.77790
H          1.00690       -0.88230        1.22050
H          0.31290       -0.43030       -0.35970
H          2.86850       -2.16110        0.43190
H          3.91580       -1.52380       -0.82150
H          1.02440       -2.47760       -1.23650
H          2.50620       -3.25000       -1.81340
H          1.99000       -0.57760       -2.45910
H          4.03160        2.06570       -1.89210
H          4.52150        1.08690       -0.36620
