16
qm7 3816 -1582.33
C          1.87970        0.16800       -0.78740
O          1.68760       -0.06470        0.61260
C          0.49960        0.06060       -0.18450
C         -0.34750        1.24410        0.13330
C         -1.74730        0.70810       -0.14040
N         -1.65140       -0.71410        0.20490
C         -0.34250       -1.17230       -0.28660
H          2.24540        1.14260       -1.08460
H          2.25460       -0.65510       -1.38220
H         -0.23980        1.52970        1.18570
H         -0.12160        2.10830       -0.49830
H         -2.50820        1.22170        0.45430
H         -2.00170        0.81700       -1.20170
H         -2.40290       -1.24880       -0.22450
H         -0.42020       -1.49360       -1.33070
H          0.02960       -2.00100        0.32230
