14
qm7 3916 -1489.72
C          1.05740       -0.05490        0.16280
C          2.37920        0.04510       -0.00700
C          3.21830        1.28390       -0.05040
C          4.48430        0.79510       -0.74050
N          4.50800       -0.62260       -0.52040
C          3.26140       -1.12940       -0.23870
O          2.94520       -2.30130       -0.20210
H          0.56830       -1.02570        0.15700
H          0.43810        0.82220        0.31320
H          3.44460        1.60980        0.97140
H          2.75160        2.11050       -0.59360
H          4.44310        0.96850       -1.82150
H          5.39180        1.25130       -0.33700
H          5.23260       -1.25100       -0.84360
