14
qm7 4612 -1435.09
C          1.01960       -0.46060        0.05670
C          2.48020       -0.04650        0.03930
C          2.64590        1.45450        0.03820
O          1.72800        2.27010        0.01890
C          4.08880        1.96830        0.05690
N          4.20340        3.33070        0.04570
O          5.03880        1.20540        0.07970
H          0.93240       -1.55150        0.05270
H          0.48900       -0.07150       -0.81890
H          0.51390       -0.08000        0.95080
H          2.96230       -0.44790       -0.85770
H          2.98190       -0.45050        0.92420
H          3.36820        3.90620        0.02700
H          5.11760        3.75830        0.05730
