15
qm7 3334 -1515.24
C          1.82260       -0.45940       -1.29110
O          2.08240        0.15990       -0.03800
C          3.02120        1.25700       -0.06040
C          2.47470        2.61710       -0.57930
C          3.17900        3.25750        0.62850
O          3.53180        4.38620        0.89720
C          3.31860        1.89450        1.32710
H          1.10660       -1.27010       -1.13660
H          2.74650       -0.87520       -1.70310
H          1.39420        0.26530       -1.98900
H          3.95050        0.95950       -0.56650
H          1.38690        2.72630       -0.55220
H          2.86250        2.93330       -1.54990
H          4.31360        1.69150        1.72810
H          2.55870        1.72220        2.09420
