17
qm7 3771 -1649.25
O          0.89340        0.52930       -0.62720
C          2.25790        0.36530       -0.25480
C          2.97460        1.69680       -0.43320
C          4.44200        1.61810       -0.00830
O          5.10780        0.62220       -0.77760
C          5.12750        2.95320       -0.15940
C          6.24690        3.21790       -0.84830
H          0.46990       -0.34260       -0.54040
H          2.69520       -0.41130       -0.89040
H          2.29410        0.03600        0.78860
H          2.44870        2.47200        0.13830
H          2.89660        1.99210       -1.48780
H          4.50510        1.31560        1.04320
H          5.08230        0.91990       -1.70340
H          4.65430        3.77820        0.37240
H          6.79680        2.44620       -1.37940
H          6.65390        4.22350       -0.87640
