17
qm7 1576 -1752.67
C          1.68270       -0.67300       -0.90110
C          1.89970        0.45980       -0.22260
C          3.18670        1.15430       -0.11590
C          3.65310        1.99530       -1.27290
C          3.19510        2.66270       -0.00380
C          4.19900        3.31070        0.84620
C          4.29560        3.18600        2.17590
H          0.69860       -1.12990       -0.92530
H          2.48390       -1.16560       -1.44400
H          1.06020        0.90340        0.31040
H          3.94610        0.60280        0.43160
H          3.01600        2.08410       -2.14610
H          4.71130        1.97690       -1.50850
H          2.24580        3.18880       -0.04670
H          4.91280        3.96030        0.34190
H          3.60780        2.55760        2.73350
H          5.06780        3.70850        2.73070
