14
qm7 572 -1363.56
N          1.24780        1.20150       -1.78570
C          2.49960        1.38040       -1.54950
N          3.27540        0.46840       -0.91350
C          4.51980        0.88990       -0.29040
C          5.68180       -0.05870       -0.20260
C          5.75640        1.13710       -1.10680
H          0.87670        2.01980       -2.28130
H          3.02640        2.30020       -1.85850
H          2.74110       -0.29950       -0.51770
H          4.35550        1.53180        0.57210
H          5.58710       -1.03460       -0.66450
H          6.27660       -0.04980        0.70270
H          6.40090        1.95740       -0.81420
H          5.70980        0.96510       -2.17590
