16
qm7 6186 -1583.12
O          4.51080        0.60560        1.93060
C          3.41570        1.12700        1.74980
C          2.99230        1.82780        0.48280
C          4.13260        2.04690       -0.50430
C          5.15740        3.02200        0.00160
C          5.68180        4.11070       -0.89810
N          4.77790        4.41810        0.20810
H          2.63630        1.07100        2.53030
H          2.53540        2.78150        0.76790
H          2.21580        1.20950        0.01930
H          3.70810        2.40300       -1.45130
H          4.63280        1.09600       -0.72600
H          5.83420        2.58510        0.72910
H          5.26250        4.22530       -1.89030
H          6.71160        4.42470       -0.78720
H          5.29710        4.81520        0.99600
