13
qm7 4997 -1354.04
C          0.97980        0.01270       -0.00840
N          2.41900       -0.04590       -0.00160
C          3.24760        1.04180        0.00460
N          4.51200        0.68780        0.01090
C          4.49690       -0.68400        0.00840
C          3.20730       -1.17030        0.00030
O          2.75440       -2.42000       -0.00470
H          0.65220        1.05540       -0.00010
H          0.60810       -0.49810        0.88340
H          0.61770       -0.48120       -0.91350
H          2.88380        2.06130        0.00430
H          5.41350       -1.25870        0.01230
H          1.78520       -2.42810       -0.01200
