15
qm7 1420 -1546.79
C          2.14820       -0.66080        1.33310
C          2.62730       -0.17910       -0.02920
C          3.00430        1.29360       -0.01710
N          1.94930        2.18500       -0.06360
C          4.30680        1.63650        0.00000
C          4.77610        2.96180        0.00000
N          5.16030        4.04680        0.00000
H          1.90020       -1.72690        1.29020
H          1.25180       -0.12160        1.65860
H          2.92320       -0.52540        2.09610
H          1.84250       -0.34850       -0.77600
H          3.47960       -0.79480       -0.34130
H          1.07360        1.84260        0.32550
H          2.16030        3.14350        0.21440
H          5.07000        0.86630        0.02010
