14
qm7 5407 -1404.09
C          3.08200       -0.67650       -0.33150
O          2.43050        0.58840       -0.31760
C          3.17400        1.71610       -0.05790
N          2.37140        2.82900        0.00610
C          4.50930        1.72490        0.09500
C          5.26560        2.94400        0.43590
O          6.49190        2.94770        0.43790
H          2.32380       -1.44300       -0.51590
H          3.54720       -0.88860        0.63640
H          3.81630       -0.72890       -1.14140
H          1.44750        2.59610       -0.36010
H          2.75400        3.63640       -0.47710
H          5.12580        0.84400        0.00750
H          4.68100        3.84190        0.69220
