13
qm7 6661 -1314.01
N          2.05260       -0.39990       -1.30660
C          2.55790       -0.05140        0.01420
C          2.98250        1.37480        0.00050
C          2.15770        2.46840       -0.20680
S          3.08360        3.90340       -0.12080
N          4.52970        3.15300        0.19120
C          4.31910        1.84040        0.22350
H          1.82130       -1.39170       -1.32590
H          2.79240       -0.26630       -1.99580
H          3.39560       -0.70760        0.27450
H          1.77150       -0.20150        0.76150
H          1.09620        2.48580       -0.40840
H          5.18100        1.21440        0.41820
