14
qm7 647 -1351.42
C          1.01970        0.05230        0.12410
C          2.51680       -0.08990       -0.04850
O          3.23420        0.95640        0.65980
C          4.12150       -0.02680        1.24590
C          3.21870       -1.18140        0.78750
O          3.83800       -2.27230        0.07150
H          0.49870       -0.79000       -0.34400
H          0.66160        0.97230       -0.34940
H          0.73420        0.08230        1.18150
H          2.80320       -0.08890       -1.10730
H          5.11400        0.01320        0.78650
H          4.21000        0.09580        2.32920
H          2.60140       -1.57480        1.60300
H          4.36950       -1.85650       -0.62940
