19
qm7 1574 -1769.91
C          0.89450       -0.65960        0.94420
C          0.88000        0.64770        0.15940
N          1.92810        1.57850        0.62970
C          2.00880        2.69690       -0.32740
N          1.79470        1.96010        1.93220
C          2.93300        2.14530        2.52130
C          2.98770        2.57490        3.95320
H          0.15260       -1.35130        0.53180
H          0.64990       -0.49990        1.99920
H          1.87490       -1.14410        0.88590
H         -0.11100        1.11190        0.23810
H          1.04790        0.39890       -0.89580
H          2.21800        2.33470       -1.33980
H          2.83000        3.37030       -0.05820
H          1.08150        3.28020       -0.34150
H          3.90060        2.00380        2.00680
H          1.98430        2.65500        4.37800
H          3.49020        3.54380        4.01200
H          3.57010        1.84390        4.51970
