15
qm7 3149 -1517
C          1.20290        0.03930        1.14740
C          2.04050        0.33190       -0.07210
O          1.76330       -0.21420       -1.14880
C          3.22490        1.32520        0.09010
C          3.14110        2.66110       -0.65940
C          3.48930        3.28770        0.68520
O          3.27770        2.03070        1.37060
H          1.84010       -0.35260        1.94410
H          0.44520       -0.71170        0.90450
H          0.70080        0.95320        1.47490
H          4.18190        0.81060       -0.07240
H          2.14700        2.92170       -1.03400
H          3.88420        2.80240       -1.44790
H          4.52330        3.62830        0.79300
H          2.80090        4.06250        1.03250
