13
qm7 3034 -1368.06
C          0.95150        0.06240       -0.02060
C          2.29190       -0.03630       -0.05170
C          2.83370       -1.42740       -0.08090
O          4.03750       -1.65710       -0.10070
C          3.21080        1.11440       -0.04080
C          3.80590        1.57590       -1.34860
O          2.87670        2.38790       -0.62260
H          0.47910        1.04150        0.00520
H          0.28940       -0.79720       -0.02420
H          2.08990       -2.24210       -0.08350
H          3.86190        1.13870        0.82820
H          3.46380        1.13280       -2.27540
H          4.84530        1.88040       -1.35360
