11
qm7 1089 -1152.1
N          5.35580       -1.90550        0.04480
C          4.57490       -1.06030        0.02490
C          3.59500        0.00000        0.00000
C          4.39730        1.25910        0.03630
C          4.83230        1.96680       -1.22360
O          3.69670        2.40770       -0.46730
H          2.93560       -0.04710        0.87220
H          2.97180       -0.05810       -0.89850
H          4.97340        1.39430        0.94420
H          4.64670        1.50160       -2.18440
H          5.72620        2.57920       -1.18640
