15
qm7 1238 -1516.56
C          1.00090       -0.05360        0.00300
C          2.52000        0.00000        0.00000
C          3.00200        1.36120        0.00000
C          3.39930        2.48310        0.00000
C          4.03460        3.77070        0.04760
N          5.37700        3.82690        0.17480
N          3.24980        4.77660       -0.05180
H          0.65710       -1.09290        0.00180
H          0.58510        0.44310       -0.88050
H          0.58890        0.43980        0.89020
H          2.89550       -0.53270       -0.88090
H          2.89920       -0.53420        0.87840
H          5.89870        3.03260       -0.17240
H          5.76270        4.72790       -0.07930
H          2.27540        4.46810       -0.13170
