12
qm7 817 -1247.46
C          1.06180       -0.13620       -0.21520
O          2.48100       -0.06330       -0.19940
C          3.06150        1.16830        0.00000
C          2.41370        2.32920        0.18730
C          4.46750        1.16830        0.00000
C          5.65740        1.16830        0.00000
H          0.78150       -1.17950       -0.38430
H          0.64740        0.46020       -1.03400
H          0.64220        0.17300        0.74710
H          1.33510        2.40980        0.20010
H          2.96400        3.25430        0.33680
H          6.72210        1.16140       -0.00110
