17
qm7 4708 -1626.77
C          1.80580       -0.86690        0.12240
C          3.13940       -0.48970        0.74850
N          3.76680        0.57800       -0.03180
C          5.06620        0.95760        0.57280
C          5.77910        2.01380       -0.27920
N          5.21410        2.26430       -1.49770
O          6.79570        2.59650        0.08200
H          1.33550       -1.67230        0.69530
H          1.93730       -1.21780       -0.90660
H          1.11750       -0.01540        0.10990
H          3.78540       -1.37490        0.76780
H          2.97370       -0.16450        1.78220
H          3.16260        1.40250       -0.01130
H          5.72830        0.08750        0.63250
H          4.91100        1.37780        1.57220
H          4.52640        1.60310       -1.84290
H          5.70980        2.86210       -2.14300
