18
qm7 5694 -1711.13
N          0.77050        0.08570        0.37490
C          2.20400       -0.16800        0.25380
C          2.94340        1.13060       -0.07100
C          4.46370        0.95690       -0.07280
C          4.95650        0.16290       -1.24100
C          6.19610       -0.68650       -1.12370
O          4.88190       -1.25840       -1.08680
H          0.29510       -0.79540        0.57030
H          0.40690        0.40830       -0.52100
H          2.36340       -0.91380       -0.53090
H          2.57100       -0.58640        1.19690
H          2.68840        1.88740        0.68240
H          2.61000        1.51910       -1.04080
H          4.78810        0.50770        0.87480
H          4.92710        1.94850       -0.12280
H          4.71140        0.59350       -2.20200
H          6.75920       -0.67590       -0.19920
H          6.78880       -0.85910       -2.01330
