16
qm7 5318 -1563.7
C          1.91850        0.22540       -0.78230
O          3.21870        0.46230       -0.26040
C          3.64200        1.77160       -0.10850
C          2.86790        2.84690       -0.35440
C          5.02810        1.92000        0.38180
C          6.14320        1.24540       -0.37690
N          5.98180        2.69270       -0.41890
H          1.78300       -0.85710       -0.86940
H          1.80930        0.65780       -1.78260
H          1.14890        0.60580       -0.10240
H          1.84710        2.78680       -0.70670
H          3.27030        3.84570       -0.21320
H          5.12400        1.99900        1.45970
H          5.90560        0.71330       -1.28930
H          6.98570        0.86070        0.18160
H          6.65970        3.15330        0.18860
