18
qm7 4429 -1698.22
C          0.83490       -0.89910       -0.29570
C          2.36220       -0.78020       -0.22880
C          2.89200       -1.71420        0.86530
C          2.95460       -1.13310       -1.59800
O          2.63040        0.59520        0.10170
N          4.01150        0.83120        0.19650
C          4.19610        2.07280        0.48780
H          0.42310       -0.21420       -1.04610
H          0.37990       -0.61850        0.66140
H          0.51690       -1.91700       -0.54470
H          2.51730       -1.41190        1.84980
H          3.98560       -1.68380        0.92380
H          2.59560       -2.75290        0.68330
H          2.62030       -0.42140       -2.36170
H          2.66580       -2.14210       -1.91150
H          4.04930       -1.08690       -1.58540
H          5.21820        2.46270        0.60780
H          3.36690        2.78700        0.62730
