13
qm7 4646 -1312.8
C          0.15120        0.46220        0.27730
C          0.76500       -0.89850        0.10890
C         -0.17040       -2.07760        0.24640
O         -1.35160       -1.90660        0.50710
N          2.03730       -1.00530       -0.13890
N          2.49120       -2.31050       -0.27280
C          3.76140       -2.32710       -0.50520
H          0.90710        1.24160        0.14650
H         -0.27660        0.54960        1.27970
H         -0.63560        0.60470       -0.46840
H          0.27640       -3.07140        0.09630
H          4.28190       -3.28790       -0.63800
H          4.37270       -1.41120       -0.58050
