9
qm7 3802 -1075.22
O          0.96430       -0.00710        0.00000
C          2.31000       -0.12850        0.00000
O          2.90410       -1.19190        0.00000
C          3.00930        1.12870        0.00000
C          3.59630        2.17590        0.00000
C          4.34910        3.51000        0.00000
C          4.94330        4.55250        0.00000
H          0.68340        0.92740        0.00000
H          5.47700        5.47490       -0.00000
