12
qm7 651 -1289.94
C          1.08070       -0.01940       -0.09050
C          2.39250        0.03200        0.13560
O          3.14210       -1.10390        0.40210
C          4.49810       -0.64190        0.58950
C          4.45750        0.83200        0.40800
C          3.20880        1.20260        0.14230
H          0.55960       -0.97040       -0.07070
H          0.50110        0.87260       -0.29790
H          5.14060       -1.12350       -0.15380
H          4.82820       -0.91650        1.59600
H          5.31190        1.48660        0.48260
H          2.86100        2.20760       -0.03820
