12
qm7 7110 -1351.51
C          0.96370       -0.01580       -0.00630
C          2.46490       -0.02780       -0.00280
C          3.14840       -1.18230        0.00210
C          3.18160        1.20530       -0.00290
C          3.78170        2.24570       -0.00220
C          4.54760        3.57350       -0.00050
N          5.12650        4.57910        0.00080
H          0.57050        1.00670        0.01030
H          0.57100       -0.53480        0.87460
H          0.57630       -0.50490       -0.90640
H          2.63560       -2.13940        0.00260
H          4.23450       -1.20690        0.00520
