12
qm7 5696 -1304.19
N          1.00000        0.00000        0.00000
C          2.15100        0.00000        0.00000
C          3.55700        0.00000        0.00000
C          4.27970        1.06540       -0.37900
C          5.74370        1.15410       -0.37520
C          6.53590        0.35170       -1.37810
O          6.46020        1.77930       -1.45140
H          4.04980       -0.90450        0.33930
H          3.76390        1.96560       -0.71260
H          6.17340        1.28120        0.61430
H          6.01780       -0.21070       -2.14480
H          7.47570       -0.08210       -1.05930
