12
qm7 780 -1270.27
C          1.00350        0.08810        0.17800
C          2.43980       -0.02290       -0.26820
O          2.84920       -1.04030       -0.83130
C          3.33690        1.17970       -0.06130
C          3.35570        1.64000        1.33410
C          3.37450        2.02330        2.47230
H          0.56460        1.00810       -0.21640
H          0.94800        0.07760        1.26880
H          0.43390       -0.76080       -0.21110
H          2.99140        1.97670       -0.72780
H          4.35200        0.90880       -0.37250
H          3.39800        2.36380        3.48270
