15
qm7 4129 -1477.16
C          0.93160        0.01000        0.15250
C          2.43780       -0.09400        0.05340
N          3.10840        0.90240        0.91450
C          4.03440        0.00660        1.36780
O          5.13440        0.20580        1.82430
C          3.13500       -1.19190        0.91750
N          3.77080       -2.18540        0.03330
H          0.45760       -0.81180       -0.39450
H          0.57760        0.94870       -0.28710
H          0.58360       -0.03140        1.19020
H          2.79250       -0.00390       -0.98240
H          3.45180        1.81800        0.65580
H          2.54080       -1.62180        1.73000
H          4.45880       -1.79800       -0.61140
H          3.11940       -2.74240       -0.51520
