15
qm7 516 -1475.9
N          0.92270        0.00210       -0.29120
C          2.35270       -0.05580        0.00610
C          3.23970       -0.88530       -0.87280
C          3.32740        0.61660       -0.93020
C          4.49980        1.28890       -0.36310
C          5.75370        1.19750       -0.82580
H          0.50970        0.84910        0.09770
H          0.43340       -0.77850        0.14510
H          2.59420       -0.05520        1.06740
H          2.79770       -1.39220       -1.72310
H          4.04130       -1.44080       -0.40010
H          2.91740        1.10110       -1.81160
H          4.31980        1.93180        0.49650
H          5.99080        0.58060       -1.68720
H          6.56500        1.73900       -0.35130
