17
qm7 1547 -1659.76
C          3.49200       -1.13560        0.22610
C          3.28330       -0.04930        1.27600
N          3.19510        1.30470        0.70670
C          2.80800        2.26840        1.74080
C          4.42140        1.74300       -0.00000
C          5.66330        1.78180        0.80300
N          6.63800        1.81180        1.43700
H          3.39850       -2.12350        0.68930
H          4.48650       -1.07970       -0.22660
H          2.74200       -1.06680       -0.56880
H          4.07050       -0.11750        2.03670
H          2.33740       -0.27760        1.78400
H          1.83390        2.00150        2.16600
H          2.69400        3.27080        1.31300
H          3.53370        2.32090        2.55990
H          4.24250        2.74190       -0.41880
H          4.58070        1.10450       -0.87670
