18
qm7 7012 -1768.81
C          2.46430        3.40810       -0.52180
C          2.86690        2.14720       -0.72360
C          3.24120        1.19540        0.37820
C          4.69130        0.76190        0.19310
C          5.80030        1.76370        0.59970
C          6.50090        0.52990        1.19030
N          5.16800       -0.10400        1.31080
H          2.19500        4.04670       -1.35800
H          2.39050        3.83060        0.47590
H          2.91300        1.76670       -1.74250
H          2.57860        0.32390        0.32080
H          3.08850        1.65340        1.36300
H          4.87170        0.29970       -0.78910
H          5.50240        2.50610        1.34950
H          6.32210        2.26540       -0.21870
H          7.17140        0.01620        0.49170
H          7.02220        0.68700        2.13800
H          5.15250       -1.10300        1.11210
