17
qm7 2167 -1694.03
C          1.08250       -0.02650        0.05000
C          0.78360        0.45300        1.44030
C          0.01410       -0.42360        2.39560
C          1.47420       -0.15480        2.63380
C          2.41390        0.45960       -0.43180
C          3.59620       -0.46790       -0.53700
O          2.82210       -0.10070       -1.68760
H          1.03530       -1.12200        0.00060
H          0.30300        0.35120       -0.62260
H          0.58080        1.51810        1.46590
H         -0.27040       -1.42050        2.07940
H         -0.70460        0.05180        3.05290
H          1.74140        0.50350        3.45340
H          2.17230       -0.96930        2.47540
H          2.57560        1.51930       -0.28510
H          3.50280       -1.48420       -0.17830
H          4.58940       -0.04630       -0.44900
