17
qm7 2781 -1719.69
C          3.13750       -1.72160       -1.21920
C          2.88140       -0.85950       -0.01510
C          2.24500       -1.33920        1.06680
C          3.32960        0.58420       -0.09330
C          4.84730        0.72720       -0.15890
C          5.28350        2.17090       -0.17060
O          4.52230        3.13240       -0.14220
H          2.72870       -1.25010       -2.11850
H          2.67280       -2.70850       -1.12320
H          4.21140       -1.87490       -1.36180
H          1.90480       -2.36970        1.11750
H          2.03810       -0.71400        1.93090
H          2.95140        1.14450        0.77240
H          2.86950        1.05200       -0.97310
H          5.24630        0.26440       -1.06790
H          5.31980        0.24710        0.70500
H          6.37550        2.32580       -0.21390
