13
qm7 2673 -1414.42
C          1.00000        0.00000        0.00000
C          2.19020        0.00000        0.00000
C          3.63420        0.00000        0.00000
O          4.12360       -1.19680        0.64050
C          4.64790       -0.84170        1.93170
C          4.74750        0.63650        1.92710
C          4.16640        1.11610        0.82760
H         -0.06530       -0.00690        0.00390
H          4.04310        0.03080       -1.01440
H          5.62300       -1.31950        2.05710
H          3.96300       -1.19880        2.70700
H          5.19920        1.22310        2.71200
H          4.07620        2.15980        0.56790
