12
qm7 6187 -1279.43
O          2.32840       -0.77260       -0.93670
C          2.33930        0.04770       -0.02750
C          1.48200       -0.11780        1.12460
C          0.76860       -0.26050        2.08150
C          3.28860        1.18760       -0.02380
C          3.31170        2.13470       -1.19770
N          2.70860        2.53840        0.06550
H          0.12960       -0.38860        2.92400
H          4.22030        1.01800        0.50220
H          2.62850        1.95500       -2.01990
H          4.24990        2.60280       -1.46710
H          3.32940        3.16260        0.58400
