13
qm7 5619 -1327.79
N          2.03010       -0.40620       -1.25180
C          2.60750       -0.01230        0.03120
C          2.92070        1.43430        0.05200
C          2.20720        2.57560       -0.22780
C          3.12160        3.61560        0.00720
N          4.31070        3.15830        0.40790
O          4.18170        1.77870        0.43570
H          1.88170       -1.41380       -1.24880
H          2.71630       -0.22680       -1.98470
H          3.50990       -0.60480        0.21750
H          1.89410       -0.24000        0.83050
H          1.18090        2.63450       -0.55820
H          2.97850        4.68200       -0.09340
