15
qm7 2982 -1522.31
C          0.95530       -0.00650        0.10150
C          2.44460       -0.23080        0.09570
C          2.96200       -1.45440        0.30650
C          3.31930        0.96890       -0.17660
O          2.93150        1.54900       -1.41320
C          3.21210        1.96180        0.97930
O          2.77140        3.10180        0.83760
H          0.67560        0.69740        0.89170
H          0.40280       -0.93530        0.27870
H          0.62000        0.39590       -0.85930
H          2.32540       -2.31670        0.48590
H          4.03250       -1.63710        0.28270
H          4.37520        0.68950       -0.26130
H          2.64300        2.46010       -1.20520
H          3.58380        1.60580        1.95500
