15
qm7 6648 -1549
C          1.02590       -0.02300       -0.00670
N          2.46650        0.04520        0.00040
C          3.23570        1.17050        0.00430
C          4.53990        0.73520        0.01060
C          4.45460       -0.67640        0.01000
C          5.57060       -1.65160        0.01530
N          3.18200       -1.09300        0.00340
H          0.61310        0.98890        0.00100
H          0.70160       -0.56460        0.88550
H          0.71010       -0.54800       -0.91170
H          2.80610        2.16160        0.00220
H          5.43090        1.34670        0.01510
H          5.20540       -2.68400        0.02320
H          6.19770       -1.50750        0.90110
H          6.19510       -1.51990       -0.87430
