15
qm7 6295 -1471.76
O          2.89120       -1.06020        0.63130
C          2.39320        0.01410        0.32620
N          3.08340        1.14870        0.00220
C          4.52040        1.14820       -0.13680
C          5.02630        2.54990        0.00920
C          5.98610        3.13320       -0.99370
N          4.59410        3.57700       -0.94630
H          1.30370        0.17160        0.28860
H          2.58570        1.93120       -0.40470
H          4.75320        0.72770       -1.12150
H          4.96780        0.49730        0.62200
H          5.09300        2.85980        1.04540
H          6.26600        2.54510       -1.85900
H          6.73380        3.83530       -0.64690
H          4.52570        4.48980       -0.49080
