16
qm7 5750 -1565.58
N          0.98040       -0.10680       -0.01970
C          2.44650       -0.01990        0.04920
C          2.97740        1.43280        0.00000
C          2.44260        2.27090        1.17630
O          1.02870        2.44590        1.10360
C          4.42140        1.43280        0.00000
C          5.61140        1.43280        0.00000
H          0.71000       -1.09120        0.03790
H          0.67540        0.19930       -0.94730
H          2.86750       -0.60090       -0.78090
H          2.77710       -0.50680        0.97520
H          2.61430        1.88610       -0.93220
H          2.89240        3.27020        1.17690
H          2.68050        1.80410        2.13940
H          0.65890        1.55200        0.92780
H          6.67770        1.43710       -0.00050
