18
qm7 4815 -1713.11
C          3.27880       -1.30160       -0.31450
C          2.53680       -0.02890        0.05820
O          1.97990       -0.18810        1.36100
C          3.44980        1.16390        0.08030
C          3.42540        2.18380       -1.03520
N          2.84160        2.48670        0.26910
C          3.66300        3.38690        1.07490
H          3.72990       -1.22040       -1.30810
H          2.59810       -2.15930       -0.30430
H          4.07340       -1.52010        0.40750
H          1.70440        0.12090       -0.63980
H          1.63780        0.69590        1.59480
H          4.38190        0.96540        0.59690
H          2.71860        2.05500       -1.84620
H          4.35410        2.66650       -1.31470
H          3.44440        3.22980        2.13620
H          3.41210        4.42520        0.83430
H          4.74370        3.26210        0.93320
