15
qm7 3023 -1579.47
C          1.03680        1.66410        0.51000
C          2.36640        1.81080        0.56230
C          3.26040        0.85120       -0.13450
O          2.84920       -0.08090       -0.81410
C          4.71610        1.12840        0.02140
C          5.74690        0.15630       -0.50450
C          5.53890        1.47050       -1.19900
H          0.37760        2.36240        1.01410
H          0.57710        0.84490       -0.03800
H          2.81980        2.62940        1.10670
H          4.98630        1.63820        0.94270
H          5.40130       -0.74210       -1.00540
H          6.65550        0.01930        0.06920
H          6.30940        2.22610       -1.09940
H          5.05560        1.45230       -2.17000
