19
qm7 6846 -1781.62
C          0.96660        0.06820        0.01780
C          2.47710       -0.08100        0.01520
N          3.15520        0.94780        0.85170
C          4.16520       -0.06760        1.25150
C          3.13980       -1.18020        0.90890
C          2.39260       -1.80350        2.06960
N          3.77940       -2.19370        0.05200
H          0.50120       -0.77580       -0.50290
H          0.66710        0.98430       -0.50350
H          0.55140        0.10810        1.03030
H          2.84670       -0.05810       -1.02050
H          2.59240        1.27190        1.63910
H          5.06800       -0.02840        0.62970
H          4.47420       -0.00460        2.29990
H          1.96040       -1.04090        2.72630
H          3.05920       -2.42000        2.68290
H          1.57390       -2.44040        1.71770
H          4.33470       -1.80520       -0.71180
H          3.11860       -2.83580       -0.38420
