15
qm7 5494 -1476.05
N          0.87880       -0.00640       -0.23650
C          2.30370       -0.25220       -0.02640
C          3.11150       -0.84980       -1.13770
C          3.31520        0.59310       -0.76500
N          4.52000        1.01830       -0.13660
C          4.56900        1.97680        0.83480
O          5.61030        2.36040        1.34900
H          0.52810        0.68930        0.42210
H          0.33810       -0.85370       -0.06080
H          2.56590       -0.56870        0.98150
H          2.61830       -1.05990       -2.07980
H          3.87770       -1.56820       -0.87180
H          2.92860        1.32620       -1.47020
H          5.41350        0.65490       -0.44580
H          3.57860        2.37000        1.11640
