17
qm7 2913 -1703.05
C          0.64260       -0.13580        0.38270
C          2.13290       -0.03650        0.36400
C          2.80850        1.06170       -0.01080
C          4.30340        1.17260       -0.02110
O          4.66290        2.21840        0.88090
C          5.99350        2.45360        1.07510
C          7.04860        1.84650        0.51960
H          0.31890       -0.98720       -0.22420
H          0.16180        0.76550       -0.01120
H          0.29250       -0.29150        1.40810
H          2.67600       -0.91970        0.69290
H          2.26780        1.95070       -0.32620
H          4.63430        1.42410       -1.03560
H          4.76390        0.22730        0.29050
H          6.10990        3.25660        1.79610
H          6.96130        1.04540       -0.20160
H          8.05410        2.15610        0.79200
