15
qm7 2699 -1546.75
C          1.00000        0.00000        0.00000
C          2.44400        0.00000        0.00000
C          3.63420        0.00000        0.00000
C          5.07450        0.07290       -0.06960
C          5.75270        1.10210        0.84330
C          6.62320       -0.07570        1.27130
O          5.69240       -1.01520        0.67390
H          0.60600        1.02090        0.01180
H          0.60600       -0.52060        0.87830
H          0.60590       -0.50030       -0.88990
H          5.45530        0.08280       -1.09880
H          5.13130        1.51310        1.64480
H          6.27820        1.91200        0.32970
H          7.60590       -0.13510        0.79360
H          6.72000       -0.22150        2.35080
