14
qm7 4004 -1492.43
C          1.01000        0.01430        0.08630
C          2.49010       -0.00450       -0.02100
C          3.28960       -1.07040       -0.12520
N          4.58330       -0.66770       -0.20190
C          4.70110        0.71030       -0.15150
O          5.74320        1.34260       -0.20090
C          3.29430        1.27500       -0.02440
H          0.59290       -0.99750        0.06400
H          0.57480        0.57710       -0.74520
H          0.70180        0.48630        1.02430
H          3.02100       -2.11720       -0.15100
H          5.38760       -1.27320       -0.28690
H          3.05940        1.90010       -0.88860
H          3.19140        1.82150        0.91630
