15
qm7 5721 -1487.22
N          1.78800       -0.31690        1.07670
C          2.83510        0.05770        0.12300
C          2.88560        1.52650       -0.21040
C          1.97610        2.45550        0.13800
C          4.07220        1.90950       -1.03130
N          4.62060        3.12270       -0.75420
O          4.57640        1.14700       -1.84520
H          1.91320       -1.29870        1.31940
H          0.88740       -0.26640        0.60270
H          2.69210       -0.52270       -0.79590
H          3.79850       -0.24070        0.55280
H          1.10760        2.19350        0.73390
H          2.05210        3.49130       -0.17380
H          4.32900        3.68240        0.03320
H          5.48020        3.36210       -1.22810
