12
qm7 6223 -1278.59
O          1.77020       -0.55100       -0.75230
C          2.16830        0.39560       -0.08060
C          1.67630        0.52160        1.28090
C          1.26310        0.61650        2.40590
N          3.06560        1.34110       -0.57560
C          4.11540        1.91600        0.21280
C          2.97860        2.73960       -0.27440
H          0.88880        0.68780        3.40060
H          5.06200        1.96320       -0.30860
H          4.15710        1.62170        1.25210
H          2.20040        3.03920        0.41330
H          3.11860        3.37100       -1.14150
