14
qm7 653 -1424.25
C          0.96910        0.03400       -0.07270
C          2.48100       -0.01160        0.08070
O          2.84370       -1.21930        0.77940
C          3.38620       -0.86340        2.06280
C          3.52660        0.61050        2.04190
C          3.01030        1.09830        0.91620
H          0.62200       -0.82480       -0.65760
H          0.64340        0.95190       -0.57250
H          0.46770       -0.03050        0.90070
H          2.96520       -0.02800       -0.90140
H          4.34870       -1.36640        2.18980
H          2.69460       -1.19290        2.84390
H          3.97380        1.19200        2.83450
H          2.97320        2.14140        0.64050
