16
qm7 4079 -1568.72
C          0.91530        0.01190        0.15160
C          2.44110        0.00430        0.12010
C          2.96960        1.21640       -0.63970
O          4.33790        0.97640       -0.96710
N          4.44480        0.01050       -1.99060
C          3.79750       -1.07750       -1.71530
C          2.99790       -1.29890       -0.46030
H          0.53920        0.94090        0.59420
H          0.53470       -0.82320        0.75000
H          0.49690       -0.07680       -0.85740
H          2.79420        0.07020        1.15750
H          2.91830        2.11460       -0.01460
H          2.40330        1.42050       -1.55750
H          3.86900       -1.92330       -2.41820
H          2.20060       -2.01460       -0.69050
H          3.66200       -1.78920        0.26140
