8
qm7 121 -850.55
S         -0.39490       -1.16580        0.00460
C         -1.30600        0.28430       -0.02350
C         -0.43450        1.35260       -0.04080
C          0.91130        0.88670       -0.02930
N          1.09390       -0.43030       -0.00530
H         -2.38630        0.28010       -0.02590
H         -0.73660        2.39060       -0.06010
H          1.79770        1.50860       -0.03850
