11
qm7 1055 -1093.04
C          1.22960       -0.23650       -0.69990
N          2.47410       -0.22670       -0.36210
O          2.92660        1.10540       -0.37280
C          4.30860        1.12710        0.00000
C          4.79060        2.48830        0.00000
C          5.18790        3.61020        0.00000
H          0.68240       -1.19180       -0.75230
H          0.66550        0.67820       -0.94620
H          4.87800        0.51860       -0.71170
H          4.41410        0.68330        0.99650
H          5.53940        4.61620       -0.00130
