14
qm7 4913 -1345.32
C          2.75170        3.10300       -1.12680
C          2.26310        1.97730       -0.59650
O          2.92920        0.92090       -0.04470
C          4.36080        0.95070       -0.04130
O          4.89010        1.88280        0.90830
N          6.29560        1.84790        0.84820
C          6.76290        2.63180        1.75920
H          2.07490        3.85150       -1.52770
H          3.81140        3.32610       -1.17180
H          1.19560        1.78560       -0.55130
H          4.74670        1.15610       -1.04820
H          4.69340       -0.05300        0.24530
H          7.85140        2.74510        1.87960
H          6.11990        3.20890        2.44450
