15
qm7 2583 -1571.73
C          0.68760        0.84050        0.27870
C          1.78060        0.79200       -0.49330
C          3.09400        1.34730       -0.15470
C          3.83250        2.13880       -1.20170
C          3.24540        2.84550       -0.00680
C          4.11840        3.38900        1.06030
O          5.23180        2.93170        1.29210
H         -0.24430        0.39030       -0.04790
H          0.70200        1.32230        1.25120
H          1.70530        0.27910       -1.45110
H          3.69780        0.71050        0.48760
H          3.36610        2.30510       -2.16620
H          4.91030        2.01950       -1.25250
H          2.36610        3.45470       -0.19460
H          3.70540        4.22840        1.64460
