15
qm7 1471 -1555.63
C          2.34300       -0.50530       -1.40300
C          2.50440        0.05380       -0.00060
N          2.99790        1.41430       -0.00630
C          2.23960        2.55060       -0.02490
C          3.14990        3.58180       -0.00680
N          4.43270        3.09840        0.02720
C          4.30970        1.79010        0.02970
H          1.96820       -1.53260       -1.36180
H          3.29840       -0.51110       -1.93820
H          1.63650        0.09320       -1.98790
H          3.20770       -0.55490        0.57830
H          1.54490        0.04900        0.52820
H          1.15930        2.53730       -0.05070
H          2.95040        4.64550       -0.01520
H          5.12720        1.08130        0.05480
