15
qm7 6387 -1418.7
O          2.07860        0.65590        2.55840
N          2.94040        0.52630        1.46260
C          2.98830        1.65910        0.83450
C          3.81690        1.83160       -0.41310
N          4.72440        2.96440       -0.19170
C          6.10560        2.56690        0.06960
C          5.69870        3.12990       -1.26750
H          2.13080       -0.22500        2.97270
H          2.40300        2.53380        1.17190
H          3.12690        2.07420       -1.22890
H          4.32130        0.88850       -0.65600
H          6.34750        1.51300        0.13740
H          6.66180        3.20760        0.74340
H          5.97650        4.15230       -1.49360
H          5.64950        2.46410       -2.11930
