12
qm7 6094 -1271.38
O          1.54640        0.27230        0.70450
C          2.49090       -0.01040       -0.01570
O          2.57200       -1.18130       -0.73130
C          3.89690       -1.30630       -1.26370
C          4.56790       -0.01270       -0.96640
C          4.00820        1.27560       -1.47480
N          3.63770        0.75100       -0.19980
H          4.39500       -2.14840       -0.77460
H          3.83390       -1.49470       -2.33930
H          5.55690       -0.07560       -0.53940
H          4.60680        2.17400       -1.41120
H          3.22240        1.27310       -2.21930
