13
qm7 553 -1323.22
N          2.67800       -0.64080        1.35410
C          2.46870       -0.02860        0.04480
C          2.96470        1.39700        0.00000
C          2.11610        2.43560       -0.08490
C          4.34710        1.65320        0.00000
C          5.51720        1.87010        0.00000
H          2.26130       -1.56920        1.35890
H          2.17960       -0.09580        2.05540
H          1.39970       -0.07610       -0.19800
H          2.98760       -0.62240       -0.71740
H          1.04120        2.29090       -0.10330
H          2.47590        3.45970       -0.13260
H          6.56550        2.05870        0.00590
