17
qm7 2332 -1746.72
C          1.46350       -0.25420        0.63980
C          2.18050        0.42980       -0.26050
C          3.00860        1.64100        0.06420
C          4.48350        1.41360       -0.28340
C          5.36430        2.61320        0.06910
C          5.09140        3.77750       -0.78820
C          4.86980        4.72850       -1.48530
H          0.87710       -1.11790        0.34130
H          1.43980        0.02960        1.68730
H          2.16310        0.11060       -1.30090
H          2.91640        1.89770        1.12670
H          2.60910        2.48790       -0.50520
H          4.58430        1.17670       -1.35080
H          4.85220        0.54040        0.27050
H          6.41570        2.32500       -0.05020
H          5.22820        2.88310        1.12260
H          4.67170        5.57330       -2.10500
