16
qm7 5197 -1614.73
C          1.77330       -0.56620       -1.37260
N          3.16180       -0.39660       -1.03030
C          3.56250        0.62580       -0.20600
O          2.80020        1.42980        0.31560
C          5.03470        0.66410       -0.00810
C          5.58710        1.57940        0.80340
C          7.05230        1.68770        1.06600
H          1.64550       -1.54350       -1.84360
H          1.48260        0.22390       -2.07020
H          1.15550       -0.50180       -0.47250
H          3.84670       -0.98630       -1.48110
H          5.64260       -0.06430       -0.52870
H          4.95000        2.29840        1.31720
H          7.62970        0.94960        0.50050
H          7.25240        1.53510        2.13080
H          7.40800        2.68430        0.78820
