16
qm7 2057 -1619.53
N          1.01840       -0.01850        0.10400
C          2.47000        0.00000        0.00000
C          2.95200        1.36120        0.00000
C          3.34930        2.48310        0.00000
C          3.83130        3.84430        0.00000
C          2.68580        4.79940       -0.16920
C          2.34020        5.73790        0.72320
H          0.68820       -0.97320       -0.01430
H          0.62770        0.52150       -0.66620
H          2.77360       -0.51160       -0.91960
H          2.89570       -0.55860        0.83960
H          4.53780        3.99780       -0.82360
H          4.37830        4.05210        0.92700
H          2.11080        4.71380       -1.08940
H          2.87810        5.86330        1.65760
H          1.49750        6.39670        0.53710
