17
qm7 1619 -1638.73
C          0.78220        0.01640        0.00010
N          2.22120        0.03990        0.20640
C          3.02060       -0.82580       -0.64800
C          2.61250       -1.43030       -1.95210
N          2.81080       -0.35930       -2.95190
C          2.62410        0.92700       -2.24960
C          3.02590        0.66220       -0.83500
H          0.34830        0.94470        0.38590
H          0.34870       -0.80780        0.57610
H          0.44070       -0.09540       -1.03260
H          3.88930       -1.29120       -0.20230
H          3.23930       -2.29280       -2.20390
H          1.57220       -1.76880       -1.95280
H          3.78660       -0.40210       -3.24780
H          3.26020        1.69290       -2.70600
H          1.58780        1.26650       -2.33710
H          3.89790        1.21730       -0.51650
