10
qm7 2089 -1150.99
N          1.05400       -0.29540        0.00000
C          2.39570       -0.03800        0.00000
C          3.05350        1.13800        0.00000
C          2.35050        2.35560        0.00000
N          1.77500        3.35240        0.00000
C          4.45950        1.13800        0.00000
N          5.61030        1.13800        0.00000
H          0.71420       -1.25370       -0.00000
H          0.36610        0.45450       -0.00000
H          2.96830       -0.96780        0.00000
