16
qm7 829 -1489.92
C          2.12290       -0.76870       -0.21370
O          3.41480       -0.18510       -0.08530
C          3.33750        1.23530        0.05510
C          4.74900        1.81430        0.12560
C          5.54260        1.27170        1.31020
O          5.84480       -0.10720        1.14590
H          2.24480       -1.84820       -0.33400
H          1.60970       -0.37390       -1.09570
H          1.52920       -0.58040        0.68530
H          2.78000        1.48230        0.96610
H          2.81240        1.66110       -0.80790
H          4.68610        2.90540        0.19600
H          5.28000        1.55770       -0.79890
H          4.99100        1.39840        2.24840
H          6.49250        1.80780        1.40190
H          5.04820       -0.52450        0.75430
