15
qm7 3634 -1600.29
O          0.99280       -0.02930        0.25300
C          2.19300        0.01650        0.01460
C          2.94090        1.28160       -0.00600
C          4.25240        1.38190       -0.24720
C          4.70050        2.80520       -0.17710
C          3.38190        3.58120       -0.19150
C          2.29890        2.59870        0.25940
H          2.78100       -0.89220       -0.19690
H          4.92440        0.55740       -0.44420
H          5.26170        2.98160        0.74590
H          5.32620        3.07750       -1.03150
H          3.16700        3.92430       -1.21250
H          3.42130        4.47150        0.44500
H          1.37740        2.74340       -0.31190
H          2.08090        2.71220        1.32620
