17
qm7 3252 -1673.87
C          3.67140       -1.81340       -0.10850
C          2.76160       -0.59200       -0.06850
O          2.06150       -0.55210        1.17170
C          3.48780        0.72960       -0.32180
C          4.46900        1.11490        0.77020
C          5.34570        2.30710        0.49130
O          4.52310        0.52240        1.84920
H          4.20070       -1.88170       -1.06360
H          3.08000       -2.72570        0.02630
H          4.40730       -1.80250        0.70110
H          2.00190       -0.71320       -0.84930
H          2.73750       -0.43160        1.87240
H          2.75190        1.54060       -0.37560
H          4.02680        0.68160       -1.27410
H          5.96860        2.10800       -0.38450
H          5.99500        2.49660        1.35050
H          4.72150        3.18710        0.31910
