21
qm7 3510 -2050.56
C          2.18880       -0.53400        1.30280
C          2.48460        0.06690       -0.06400
C          3.07170        1.46400        0.03270
C          2.01480        2.54330        0.10000
C          4.40430        1.71780        0.03580
C          5.46640        0.64240        0.04710
C          5.00100        3.10500        0.02540
H          1.76940       -1.53900        1.18890
H          1.46400        0.07010        1.85860
H          3.09820       -0.61520        1.90780
H          1.55900        0.10260       -0.65230
H          3.14560       -0.60220       -0.62470
H          1.20050        2.24140        0.76740
H          1.59320        2.71850       -0.89500
H          2.38780        3.49160        0.49430
H          5.08050       -0.35570        0.26690
H          6.21200        0.86140        0.81960
H          5.97490        0.60600       -0.92170
H          4.29580        3.88150       -0.27810
H          5.82940        3.15260       -0.69020
H          5.38970        3.35500        1.01730
