15
qm7 4379 -1438.99
C          1.01080       -0.02440       -0.27430
C          2.45420       -0.19660        0.08400
C          3.00390       -1.38840        0.36570
C          3.29680        1.04390        0.15180
N          4.54510        1.04550       -0.23470
N          2.76210        2.23660        0.59860
O          3.74850        3.16400        0.96800
H          0.91330        0.52700       -1.21500
H          0.47890        0.52430        0.50940
H          0.50630       -0.98820       -0.40350
H          2.41470       -2.30050        0.33180
H          4.04280       -1.49500        0.66370
H          4.80330        0.11970       -0.58940
H          1.99350        2.17940        1.26120
H          4.53590        2.82760        0.47650
