12
qm7 458 -1217.97
C          1.12730       -0.03060       -0.09160
N          2.58140       -0.04220        0.03370
C          3.25260       -0.69070       -1.08390
C          3.26140        0.81850       -0.94380
C          4.49950        1.46430       -0.59810
N          5.50340        1.99390       -0.35580
H          0.70950        0.72300        0.58370
H          0.72290       -1.00360        0.20690
H          0.76190        0.18760       -1.10270
H          2.65020       -1.13340       -1.86650
H          4.14830       -1.24740       -0.83080
H          2.63760        1.38120       -1.62930
