21
qm7 3943 -2045.79
C          2.92140       -1.04080       -0.68480
C          2.40190        0.16570        0.07950
C          3.39530        1.28780        0.07830
C          3.50810        2.29630       -1.04940
C          2.64650        2.25330       -2.26410
C          2.91990        2.70910        0.27850
C          3.67300        3.63090        1.17610
H          2.19150       -1.85620       -0.65230
H          3.85970       -1.40480       -0.25290
H          3.11080       -0.79310       -1.73400
H          2.20710       -0.12650        1.11790
H          1.44030        0.47780       -0.34240
H          4.31850        0.99420        0.57030
H          4.50890        2.63690       -1.29800
H          1.59940        2.03470       -2.03380
H          3.01210        1.49100       -2.96070
H          2.67800        3.22010       -2.77700
H          1.85190        2.89030        0.33400
H          4.75390        3.46040        1.12940
H          3.35110        3.49250        2.21300
H          3.48000        4.67080        0.89460
