16
qm7 437 -1626.96
C          1.05970        0.00970        0.14770
C          2.39630        0.00270        0.04240
C          3.26200        1.22670        0.03570
C          4.39400        0.79900       -0.88660
C          4.61370       -0.66840       -0.54040
C          3.22400       -1.22280       -0.23210
H          0.48710       -0.91060        0.08700
H          0.51100        0.93280        0.28790
H          3.64130        1.42020        1.04500
H          2.75220        2.12030       -0.33520
H          4.08980        0.89880       -1.93580
H          5.29760        1.39820       -0.73810
H          5.10040       -1.21290       -1.35560
H          5.25700       -0.75320        0.34480
H          2.82920       -1.77520       -1.09060
H          3.26110       -1.88820        0.63740
