13
qm7 1989 -1401.89
N          1.00000        0.00000        0.00000
C          2.15100        0.00000        0.00000
C          3.55700        0.00000        0.00000
C          4.33360       -1.08430       -0.05880
C          5.76640       -0.69570       -0.05760
N          5.78440        0.77680       -0.14130
C          4.38830        1.22950        0.04490
H          3.98950       -2.10830       -0.09510
H          6.25540       -1.02510        0.86410
H          6.29400       -1.13290       -0.91120
H          6.08080        1.03730       -1.08200
H          4.11380        1.93620       -0.74570
H          4.29360        1.73230        1.01350
