17
qm7 5244 -1581.66
C          2.34990       -1.02950       -1.13670
N          3.67570       -0.75130       -0.59600
N          3.91670        0.54920       -0.29610
C          5.10040        0.83560        0.15650
C          6.23950       -0.11850        0.37790
O          5.46160        2.10640        0.48330
C          4.47620        3.11880        0.25480
H          2.27800       -2.08450       -1.41710
H          2.15990       -0.42890       -2.03180
H          1.57370       -0.81530       -0.39520
H          3.83210       -1.36180        0.20950
H          5.92520       -0.93360        1.03460
H          7.08410        0.39060        0.85160
H          6.57030       -0.52150       -0.58300
H          4.93100        4.08720        0.48090
H          3.62080        2.97320        0.92140
H          4.16110        3.12490       -0.79340
