16
qm7 6294 -1604.06
O          2.03000        0.26990       -0.10650
C          2.35400        1.08810        0.74050
N          3.30210        2.06520        0.58550
C          3.97140        2.25490       -0.67870
C          5.01690        3.31270       -0.53380
C          5.24990        4.31010       -1.64020
C          4.62930        4.75870       -0.34650
H          1.89550        1.11890        1.74280
H          3.41500        2.75820        1.31200
H          3.21560        2.52120       -1.42530
H          4.42460        1.30480       -0.98340
H          5.88600        2.94850        0.00330
H          4.61550        4.27550       -2.51930
H          6.27020        4.61280       -1.84570
H          5.23240        5.36320        0.32160
H          3.57760        5.02250       -0.35660
