14
qm7 149 -1325.94
C          0.90170        0.05090       -0.20530
C          2.38350       -0.00640        0.06330
N          2.75640       -0.03980        1.48390
C          3.25040       -0.76280       -0.91250
C          3.29430        0.73870       -0.88040
H          0.67980        0.08350       -1.27750
H          0.46480        0.94360        0.25480
H          0.40440       -0.83100        0.21260
H          3.76710       -0.08590        1.60230
H          2.38380       -0.87780        1.93010
H          2.77910       -1.23590       -1.76690
H          4.11420       -1.30150       -0.54150
H          4.18000        1.21700       -0.47860
H          2.85070        1.27870       -1.70960
