19
qm7 1876 -1923.91
C          3.06900       -1.12540       -0.64560
C          2.54280        0.04730        0.16870
C          3.34670        1.32950       -0.05570
C          3.29740        1.86200       -1.49660
C          3.39130        3.33990       -1.29970
C          3.15130        3.68610       -0.03040
C          2.85890        2.49430        0.82090
H          2.49520       -2.02960       -0.41790
H          4.12020       -1.32430       -0.41300
H          2.98350       -0.93690       -1.72020
H          2.57730       -0.21850        1.23190
H          1.48860        0.21330       -0.08290
H          4.39800        1.12890        0.20100
H          2.36350        1.60980       -2.01010
H          4.14000        1.48270       -2.08300
H          3.59300        4.03790       -2.10080
H          3.13190        4.70260        0.33700
H          3.41210        2.52980        1.76450
H          1.78720        2.44070        1.03980
