13
qm7 2787 -1455.46
C          0.93880        0.08720       -0.00600
C          2.44110        0.00190       -0.00210
C          3.11270       -1.16390        0.00220
C          2.47340       -2.43490        0.00140
C          1.93730       -3.50890        0.00060
C          3.19290        1.21830       -0.00200
C          3.81840        2.24270       -0.00140
H          0.59750        1.12820        0.01090
H          0.51760       -0.40680        0.87610
H          0.52540       -0.37660       -0.90800
H          4.20010       -1.16750        0.00560
H          1.45970       -4.46090       -0.00010
H          4.37170        3.15290       -0.00080
