17
qm7 312 -1612.35
C          3.03090       -1.17070       -0.38650
C          2.37670        0.10140        0.12780
C          3.36010        1.22940        0.19930
C          3.62390        2.09420       -1.01380
N          2.85680        2.59820        0.12120
C          3.60190        3.53740        0.95330
H          2.30350       -1.98730       -0.41980
H          3.85910       -1.47550        0.26130
H          3.43070       -1.02550       -1.39530
H          1.97080       -0.08090        1.12980
H          1.52870        0.35670       -0.51990
H          4.17900        1.02370        0.87930
H          3.05590        1.91000       -1.91780
H          4.62690        2.47080       -1.17310
H          3.19010        3.53530        1.96820
H          3.49090        4.55060        0.55250
H          4.67570        3.32290        1.02750
