13
qm7 1472 -1411.44
C          2.70820       -1.16970        0.30690
C          2.24540        0.07870        0.15760
N          2.99910        1.25080        0.09260
C          2.49500        2.52570       -0.06190
C          3.57680        3.37170       -0.07470
N          4.73980        2.67070        0.06630
C          4.36800        1.41300        0.16360
H          2.01780       -2.00800        0.34380
H          3.76380       -1.40400        0.39630
H          1.17220        0.23230        0.07490
H          1.43430        2.71340       -0.14710
H          3.57690        4.44930       -0.17830
H          5.04220        0.57680        0.28660
