14
qm7 873 -1346.49
O          2.98730       -0.95480       -0.63160
C          2.35980        0.08890        0.09640
C          3.27490        1.26440        0.11250
C          3.31410        2.22200       -1.05110
C          2.71670        2.65460        0.25820
O          3.49720        3.56760        1.04160
H          2.37560       -1.70990       -0.62300
H          2.17290       -0.25760        1.11750
H          1.40140        0.32000       -0.37960
H          4.21100        1.02990        0.60510
H          2.64100        2.04830       -1.88320
H          4.27630        2.62220       -1.34590
H          1.63810        2.77300        0.29600
H          4.45250        3.44900        0.90390
