13
qm7 4010 -1383.16
C          0.97640       -0.00130       -0.00800
C          2.45610        0.05200       -0.00070
C          3.28120        1.11080        0.00510
N          4.57570        0.65760        0.01100
C          4.57850       -0.74310        0.00920
O          5.54000       -1.48750        0.01330
N          3.22190       -1.09060        0.00170
H          0.54220        1.00380       -0.00460
H          0.60620       -0.53130        0.87530
H          0.61480       -0.52180       -0.90060
H          3.04400        2.16350        0.00540
H          5.41720        1.21290        0.01620
H          2.89450       -2.04410       -0.00110
