14
qm7 6629 -1298.78
C          3.43300       -0.74660       -1.55520
S          2.99750       -0.07980        0.03180
O          1.55520       -0.17220        0.15320
O          3.85870       -0.70530        1.01890
C          3.41790        1.59350       -0.14510
C          4.69080        1.97730       -0.00550
N          5.17760        3.25320       -0.13970
H          4.50710       -0.63140       -1.71290
H          2.86790       -0.22400       -2.32950
H          3.17180       -1.80720       -1.55930
H          2.61810        2.28110       -0.37730
H          5.47490        1.25650        0.23230
H          4.47820        3.98900       -0.05980
H          6.00190        3.44250        0.43000
