17
qm7 6876 -1679.81
C          1.04630       -0.05950        0.02250
C          2.57080       -0.02830       -0.01000
N          3.07290       -1.12600       -0.81740
C          3.41400       -0.61370       -2.02910
N          3.46070        0.67460       -2.16820
C          3.11450        1.19050       -0.80310
C          4.37870        1.77160       -0.17830
H          0.65640        0.79190        0.58870
H          0.68980       -0.97830        0.49940
H          0.61770       -0.02390       -0.98470
H          2.96720       -0.07530        1.01010
H          2.57850       -2.00920       -0.79550
H          3.60450       -1.34090       -2.83410
H          2.35860        1.97900       -0.89370
H          5.17000        1.01860       -0.09610
H          4.17160        2.16140        0.82330
H          4.76790        2.59180       -0.79080
