16
qm7 6832 -1612.58
C          1.21530       -0.13760        0.20420
C          2.68680       -0.07310       -0.01650
N          3.25510       -0.52040       -1.28180
C          3.28040        0.91870       -0.99250
C          4.57420        1.59790       -0.65500
C          5.03380        2.18050       -1.89380
C          5.41240        2.66060       -2.91480
H          0.92280        0.57110        0.98540
H          0.92530       -1.14150        0.53070
H          0.64720        0.10360       -0.70090
H          3.25000       -0.33350        0.87220
H          2.53290       -0.72900       -1.97340
H          2.58960        1.54950       -1.54350
H          5.30980        0.89570       -0.24750
H          4.39580        2.37180        0.09880
H          5.75430        3.08390       -3.83100
