11
qm7 6073 -1215.13
O          1.19320        0.13060        0.35440
C          2.37630       -0.01610        0.17170
N          3.35610        0.91980        0.01740
C          4.29690       -0.03850       -0.57250
C          3.38290       -1.16050       -0.02920
C          2.96380       -2.13490       -0.99660
N          2.67180       -2.93500       -1.78530
H          3.07980        1.83700       -0.31230
H          4.36880        0.06750       -1.65990
H          5.29180        0.01200       -0.12270
H          3.71600       -1.58920        0.92340
