15
qm7 1768 -1495.04
C          1.08680        0.11610        0.25090
N          2.50260        0.19890       -0.07170
C          3.21040       -1.07760       -0.17270
C          3.63480       -1.54890        1.15360
C          3.99150       -1.92080        2.24040
C          3.22060        1.35520        0.09550
N          2.79690        2.53690        0.36840
H          0.53270        0.94050       -0.21020
H          0.93720        0.15420        1.33460
H          0.63990       -0.81040       -0.12570
H          4.08310       -0.96870       -0.82770
H          2.57160       -1.83100       -0.64910
H          4.31260       -2.23550        3.20520
H          4.30820        1.21370       -0.03640
H          1.78200        2.53510        0.46120
