16
qm7 6314 -1615.04
C          0.92510       -0.02970        0.17760
C          2.43020        0.05630       -0.02320
C          3.15850        1.10850        0.84840
C          4.15800       -0.01250        1.16740
N          3.14240       -0.99530        0.74310
C          2.81150        0.02360       -1.42470
C          3.12710       -0.00430       -2.58400
H          0.65900       -0.06380        1.24020
H          0.50670       -0.92620       -0.29490
H          0.42300        0.84300       -0.25560
H          2.59190        1.45380        1.72180
H          3.57410        1.98070        0.33500
H          5.05660       -0.00590        0.53950
H          4.45960       -0.09060        2.21550
H          3.50450       -1.75860        0.17400
H          3.40530       -0.02930       -3.61260
