19
qm7 2285 -1846.59
C          0.97950        0.00110       -0.01310
C          2.49370        0.01690        0.03240
C          3.14390        1.05340        0.98460
C          4.22530       -0.00420        1.28530
C          3.17790       -1.08330        0.90060
C          3.68610       -2.29960        0.15060
O          4.43150       -3.12470        1.03780
H          0.62090       -0.86300       -0.58170
H          0.59920        0.90530       -0.49960
H          0.54420       -0.05100        0.99080
H          2.91050        0.07920       -0.98260
H          2.53420        1.31570        1.85800
H          3.50060        1.97290        0.51290
H          5.08940        0.05100        0.61330
H          4.58080       -0.03570        2.31830
H          2.56280       -1.38190        1.76270
H          4.32630       -2.02810       -0.69530
H          2.84910       -2.89150       -0.23310
H          5.20940       -2.61690        1.32500
