14
qm7 6067 -1370.19
O          0.93420        0.00620        0.20740
C          2.36260        0.02270        0.15620
C          2.85610        1.22450       -0.63760
O          4.21510        0.99520       -0.99530
N          4.30730        0.00530       -1.99530
C          3.65070       -1.07560       -1.70000
C          2.86850       -1.28720       -0.43550
H          0.64380        0.81780        0.66030
H          2.72170        0.08950        1.19040
H          2.80010        2.13130       -0.02660
H          2.24860        1.41000       -1.53260
H          3.70960       -1.92670       -2.39750
H          2.04510       -1.97560       -0.65630
H          3.53670       -1.79680        0.26800
