18
qm7 7029 -1762.65
C          0.81860        0.31320        0.23340
C          2.29410        0.07340        0.13170
C          2.81650       -1.16360        0.10030
C          3.23610        1.22980        0.03740
C          2.68440        2.67530        0.10010
N          3.86260        3.04830        0.92330
C          3.95710        1.62670        1.34720
H          0.47010        0.92660       -0.60370
H          0.57700        0.82400        1.17120
H          0.25020       -0.62280        0.21320
H          2.18610       -2.04640        0.15710
H          3.88620       -1.33310        0.01710
H          3.93270        1.10700       -0.80720
H          1.73970        2.82290        0.63420
H          2.62080        3.19450       -0.86100
H          4.66140        3.34880        0.36310
H          4.97970        1.25270        1.45690
H          3.40750        1.41750        2.27290
