12
qm7 290 -1253.88
C          0.94460        0.01080       -0.00800
C          2.42350        0.02950       -0.00100
C          3.26800        1.11890        0.00330
N          4.53830        0.62250        0.00890
N          4.58550       -0.71940        0.00850
C          3.30010       -1.07930        0.00240
H          0.53380        1.02540        0.00160
H          0.56430       -0.51730        0.87220
H          0.57260       -0.49750       -0.90310
H          3.08100        2.18330        0.00290
H          5.41350        1.13360        0.01320
H          3.05190       -2.13330        0.00070
