13
qm7 3795 -1374.26
O          4.15140        2.25360       -2.86840
C          3.29570        2.70410       -2.12350
O          3.33160        2.72200       -0.76980
C          4.50980        2.15180       -0.17010
C          5.69390        3.11880       -0.20450
C          5.44580        4.31180        0.62360
C          5.24160        5.29020        1.28950
H          2.35770        3.16920       -2.46350
H          4.76430        1.20980       -0.67090
H          4.24950        1.89960        0.86440
H          5.90190        3.43680       -1.23160
H          6.58670        2.60320        0.16660
H          5.05630        6.16120        1.87480
