20
qm7 7009 -1917.03
C          1.18210        0.17880        0.19290
C          2.66670       -0.03110       -0.10280
C          2.84710       -0.76070       -1.43360
C          3.38910        1.29230       -0.12950
C          3.86630        1.92010        1.15550
C          4.86160        1.35400        0.18400
N          5.71830        2.25970       -0.57290
H          1.04460        0.68080        1.15670
H          0.65220       -0.77870        0.23210
H          0.70680        0.80080       -0.57390
H          3.08390       -0.66450        0.69030
H          2.44160       -0.17590       -2.26690
H          2.34040       -1.73120       -1.41930
H          3.90850       -0.93660       -1.63990
H          2.99660        1.95900       -0.89030
H          3.71560        1.38520        2.08640
H          3.79140        2.99650        1.25580
H          5.35050        0.42910        0.48440
H          5.23220        3.12360       -0.80960
H          5.98760        1.83840       -1.46150
