12
qm7 6058 -1285.68
O          0.99060       -0.08020       -0.00640
C          2.30910        0.04940        0.00000
C          3.13450        1.15400        0.00490
C          4.45570        0.66350        0.01090
O          5.59870        1.36070        0.01700
C          4.42100       -0.70480        0.00960
N          3.10000       -1.07140        0.00300
H          0.61190        0.81720       -0.00760
H          2.81620        2.18620        0.00420
H          5.40770        2.31290        0.01680
H          5.20920       -1.44430        0.01280
H          2.74510       -2.01690        0.00050
