14
qm7 4538 -1387.19
C          0.69310        0.11450       -0.02200
C          2.17330       -0.16070        0.03250
C          2.62220       -1.59260       -0.11990
N          2.98050        0.84220        0.19560
O          4.32420        0.42760        0.21060
C          5.14500        1.50060        0.42600
O          4.84830        2.67330        0.59860
H          0.49570        1.18840        0.03660
H          0.20270       -0.38630        0.81710
H          0.28700       -0.27280       -0.96040
H          1.75910       -2.26360       -0.12000
H          3.27830       -1.87000        0.70950
H          3.15790       -1.70580       -1.06630
H          6.18240        1.13130        0.42340
