11
qm7 3759 -1222.68
O          1.65820       -0.70580        0.87150
C          2.36570       -0.20750        0.00010
C          3.00880        1.15100        0.09800
C          2.59960        1.88210        1.34980
O          2.22780        3.05440        1.35500
C          4.47550        1.01730        0.03570
C          5.67230        0.91070       -0.01770
H          2.55480       -0.75350       -0.94110
H          2.65130        1.73220       -0.76020
H          2.71040        1.32530        2.29730
H          6.73380        0.82290       -0.06200
