13
qm7 2604 -1418.39
C          1.00000        0.00000        0.00000
C          2.19020        0.00000        0.00000
C          3.63420        0.00000        0.00000
C          4.21860       -1.24550       -0.68790
C          4.70200       -0.68480       -1.97280
C          4.61990        0.63820       -1.90640
O          4.11440        1.15850       -0.73320
H         -0.06560        0.00870       -0.00530
H          4.01110        0.07550        1.02660
H          3.48810       -2.04870       -0.82830
H          5.06730       -1.64450       -0.12080
H          5.08480       -1.25440       -2.80530
H          4.91320        1.37100       -2.63870
