19
qm7 3399 -1911.19
C          2.19530       -0.46420        1.40610
C          2.23650        0.17750        0.02410
C          2.93600        1.52040        0.02840
C          2.21210        2.65320        0.07110
C          4.38900        1.60750       -0.04780
C          5.25280        0.58240       -0.11780
C          6.73640        0.75650       -0.20500
H          1.67890       -1.42800        1.35620
H          1.65360        0.17010        2.11630
H          3.19840       -0.63940        1.80320
H          1.20310        0.29520       -0.32870
H          2.70620       -0.50350       -0.69600
H          1.12780        2.62840        0.11980
H          2.67270        3.63620        0.06480
H          4.79950        2.61750       -0.05330
H          4.90630       -0.44600       -0.11590
H          7.03330        1.80970       -0.19530
H          7.10900        0.30590       -1.13020
H          7.22010        0.25780        0.63990
