15
qm7 5811 -1464.4
N          1.30360        0.03690        0.96530
C          2.16200        0.12670       -0.08800
N          2.12670       -0.65260       -1.11100
C          3.25090        1.24960        0.04900
C          2.96480        2.60490       -0.60750
C          3.28650        3.18970        0.76130
O          3.27200        1.87860        1.37660
H          1.63810        0.52420        1.79790
H          0.93780       -0.88410        1.16770
H          1.33700       -1.29570       -1.01360
H          4.25400        0.86540       -0.18010
H          1.93090        2.75530       -0.93100
H          3.64980        2.88880       -1.40980
H          4.27070        3.65850        0.85380
H          2.51920        3.84510        1.18170
