15
qm7 3630 -1524.47
O          2.11580       -0.36090       -1.36900
C          2.33260        0.05920       -0.02680
C          3.18200        1.31090       -0.04630
C          2.51130        2.60940       -0.58910
C          2.99790        3.40600        0.64520
C          3.28190        2.04320        1.30810
O          3.47490        1.68320        2.44810
H          1.61430       -1.19430       -1.32880
H          2.84310       -0.74660        0.51010
H          1.35910        0.23410        0.44290
H          4.17730        1.13420       -0.47530
H          1.41860        2.55690       -0.66550
H          2.90590        2.96290       -1.54660
H          3.90220        3.99910        0.48350
H          2.23410        4.00520        1.14470
