19
qm7 1235 -1814.1
C          2.96860       -0.96630       -1.01690
C          2.53290       -0.07160        0.13590
C          3.16240        1.32680        0.07130
C          2.58690        2.23750        1.15560
C          4.68140        1.27430        0.20140
N          5.45110        1.74910       -0.81320
N          5.27910        0.80480        1.24760
H          2.44060       -1.92440       -0.97020
H          4.04250       -1.17590       -0.97730
H          2.74290       -0.50230       -1.98280
H          2.77910       -0.56690        1.08190
H          1.44080        0.02330        0.10370
H          2.92080        1.77430       -0.90170
H          2.73100        1.81590        2.15650
H          1.51250        2.38660        1.00540
H          3.07100        3.21960        1.13790
H          5.07580        2.50140       -1.37620
H          6.41730        1.88090       -0.53310
H          4.59560        0.47490        1.93760
