14
qm7 426 -1451.07
C          1.03500       -0.00630       -0.05400
C          2.52490        0.01600       -0.02030
C          3.31470       -0.69140       -1.08690
C          3.29750        0.81650       -1.04170
C          4.48320        1.50460       -0.62150
C          5.47490        2.08420       -0.27460
H          0.63260        0.78070        0.59100
H          0.66470       -0.96910        0.31150
H          0.64260        0.14830       -1.06430
H          2.90190       -0.03440        0.99560
H          2.78030       -1.17700       -1.89560
H          4.21710       -1.21220       -0.78490
H          2.72720        1.31540       -1.81990
H          6.35540        2.59860        0.03270
