15
qm7 3778 -1518.19
O          2.34300       -0.38740       -0.15010
C          2.21330        0.85670       -0.82620
C          0.75590        1.14310       -1.16390
O         -0.13380        0.29990       -1.05120
C          2.79970        1.92420        0.04760
C          4.26000        2.28600       -0.06900
C          3.20900        3.26160       -0.52040
H          1.53020       -0.89340       -0.35210
H          2.75280        0.78060       -1.77640
H          0.54910        2.13830       -1.59120
H          2.37150        1.90850        1.04530
H          4.85940        1.79180       -0.82580
H          4.80100        2.50250        0.84570
H          3.04410        4.14290        0.09050
H          3.11170        3.43810       -1.58550
