17
qm7 3116 -1671.11
C          0.91100       -0.41200        0.09160
C          2.32990        0.01800       -0.26580
C          2.83170       -0.77430       -1.47500
O          4.20690       -0.49600       -1.71730
C          2.38530        1.51810       -0.54860
C          1.97620        2.45270        0.56250
O          2.78590        1.96420       -1.62650
H          0.57510        0.06020        1.02080
H          0.85380       -1.49610        0.23630
H          0.20150       -0.13300       -0.69580
H          3.00290       -0.16650        0.58050
H          2.26400       -0.54750       -2.38430
H          2.74900       -1.84970       -1.28750
H          4.23830        0.42440       -2.05160
H          0.89570        2.40670        0.71040
H          2.25130        3.47700        0.29680
H          2.49910        2.18190        1.48250
