15
qm7 247 -1481.17
C          0.93150       -0.00860        0.96180
C          0.29080       -1.02160       -0.02880
C          0.75810       -0.02720       -1.13010
C          0.28930        0.99860       -0.04740
N         -1.16580        0.74590        0.06620
C         -1.18940       -0.72190        0.09410
H          2.02700       -0.00790        1.00190
H          0.54690       -0.00130        1.98660
H          0.65090       -2.04820       -0.04900
H          0.21000       -0.03850       -2.07790
H          1.83220       -0.02930       -1.35000
H          0.63220        2.03090       -0.08830
H         -1.58000        1.11000        0.92390
H         -1.76570       -1.12160       -0.74590
H         -1.60810       -1.10120        1.03210
