15
qm7 4008 -1512.44
C          0.97620       -0.01580        0.12700
C          2.48900       -0.01380        0.02820
C          3.15240        1.16600        0.74550
N          4.34670        0.58150        1.29390
C          4.26380       -0.79700        1.30800
O          5.08020       -1.55960        1.78620
N          3.08840       -1.15780        0.67270
H          0.55840       -0.89450       -0.37520
H          0.55570        0.87920       -0.34250
H          0.64280       -0.04550        1.17000
H          2.80210       -0.04000       -1.02200
H          2.55410        1.54550        1.58070
H          3.40800        1.98720        0.07220
H          5.07270        1.05670        1.81280
H          2.95950       -2.12450        0.40500
