15
qm7 5433 -1414.84
C          5.29000       -0.87920       -0.98130
O          5.87230        0.35440       -0.57770
N          4.85260        1.31250       -0.47340
C          5.37490        2.42690       -0.08280
C          4.47090        3.57840        0.08730
C          3.73350        3.76390        1.38620
N          4.91460        4.56310        1.08200
H          6.08290       -1.62760       -1.05690
H          4.81250       -0.77060       -1.96000
H          4.55850       -1.21390       -0.23920
H          6.45230        2.55880        0.11860
H          4.02690        3.97480       -0.81820
H          3.84770        3.01000        2.15590
H          2.77780        4.27190        1.36920
H          4.64900        5.50710        0.79450
