19
qm7 1787 -1924.31
C          1.00460       -0.04860        0.28350
C          2.37690        0.12820       -0.28180
C          3.16910        1.20080       -0.12480
C          2.82350        2.48710        0.56630
C          3.51560        3.50780       -0.32480
C          4.82230        2.83510       -0.72140
C          4.51080        1.33920       -0.79630
H          0.90070       -1.05870        0.69210
H          0.25660        0.07800       -0.50570
H          0.78400        0.65550        1.09080
H          2.74070       -0.70600       -0.87850
H          3.25380        2.49750        1.57370
H          1.74980        2.68630        0.63320
H          2.90560        3.70490       -1.21690
H          3.68060        4.46140        0.18620
H          5.20110        3.21800       -1.67450
H          5.58920        3.02080        0.03670
H          4.47280        1.00010       -1.83650
H          5.27880        0.76730       -0.26380
