19
qm7 5122 -1730.56
C          2.81800       -0.75290       -1.00910
N          2.58970       -0.00700        0.22300
C          3.08690        1.38840        0.12040
C          2.56230        2.20770        1.33880
N          3.00850        1.68870        2.64270
C          4.63140        1.47490        0.03870
O          5.26750        0.90040        1.17810
H          2.24160       -1.68410       -0.98450
H          3.87330       -1.02320       -1.13080
H          2.49210       -0.19400       -1.89420
H          3.11360       -0.46290        0.97220
H          2.66370        1.85240       -0.77450
H          1.46510        2.22510        1.32540
H          2.90170        3.24300        1.24290
H          2.49400        0.81740        2.81250
H          2.68180        2.32710        3.37000
H          4.94600        2.51990       -0.03580
H          5.00940        0.95760       -0.84890
H          4.73670        1.19800        1.95760
