18
qm7 5137 -1781.7
C          1.05260       -0.03910       -0.03970
C          2.54590        0.06230       -0.00320
C          3.46270       -0.59140       -1.09540
C          4.53100       -0.33300        0.00550
C          3.41900       -0.76970        1.00130
C          4.52620        1.17680        0.13040
N          3.08170        1.43980        0.13480
H          0.60280        0.36790        0.87220
H          0.73240       -1.08230       -0.12760
H          0.63740        0.50630       -0.89370
H          3.58060       -0.04870       -2.03840
H          3.25890       -1.64420       -1.32330
H          5.46900       -0.88430       -0.02220
H          3.20910       -1.84520        1.03950
H          3.49520       -0.39430        2.02720
H          4.98990        1.51870        1.06080
H          5.02140        1.66180       -0.71830
H          2.84420        2.05510       -0.64320
