15
qm7 6754 -1515.35
C          1.01710       -0.06640        0.00280
C          2.50590       -0.01850       -0.04690
C          3.24650       -0.62530       -1.21610
N          3.14990        0.82500       -1.04910
C          4.39170        1.45680       -0.57480
C          5.25170        1.90310       -1.69030
N          5.95690        2.25190       -2.54450
H          0.63450        0.75070        0.62260
H          0.68710       -1.01150        0.44560
H          0.56420        0.01930       -0.99070
H          2.94950       -0.09450        0.93920
H          2.67410       -1.03990       -2.03810
H          4.19600       -1.11420       -1.03260
H          4.97780        0.79990        0.08260
H          4.11960        2.33230        0.02740
