15
qm7 5846 -1474.37
N          0.92140        0.15610       -0.29830
C          2.12540        0.08390        0.35010
O          2.36630       -0.90230        1.04620
C          3.08010        1.26830        0.11100
C          2.54330        2.70750        0.24290
N          3.82190        3.09630        0.87900
C          4.00660        1.67880        1.27550
H          0.65520        0.91800       -0.90470
H          0.27630       -0.61310       -0.16800
H          3.64460        1.12370       -0.82280
H          1.67720        2.82200        0.90570
H          2.33020        3.21960       -0.70020
H          4.52680        3.41960        0.21480
H          5.03730        1.31810        1.20960
H          3.62080        1.45590        2.27760
