17
qm7 2370 -1702.2
C          0.94010       -0.18020        0.35510
C          2.23410        0.43690       -0.13700
C          3.06020        1.22270        0.88610
C          4.04010        0.04490        0.80670
O          3.27200       -0.56650       -0.26360
C          5.45000        0.40550        0.50510
C          5.88340        0.59720       -0.74690
H          0.52200       -0.85200       -0.40130
H          0.19800        0.59750        0.56070
H          1.09080       -0.75670        1.27380
H          2.10020        0.97050       -1.08570
H          2.59600        1.36770        1.86590
H          3.42820        2.18470        0.51580
H          3.99720       -0.59970        1.69420
H          6.13260        0.50660        1.34270
H          5.22450        0.49130       -1.60380
H          6.91950        0.85400       -0.94290
