14
qm7 376 -1374.26
C          0.97190       -0.00510       -0.06470
C          2.46700       -0.03510       -0.07230
C          3.17720       -1.17400       -0.10570
C          3.19240        1.27220        0.00010
N          2.71800        2.32530        0.71620
N          4.29610        1.49560       -0.64370
H          0.59890        0.65290       -0.85640
H          0.59620        0.35740        0.89740
H          0.54420       -0.99890       -0.23480
H          2.68630       -2.14170       -0.14250
H          4.26210       -1.18130       -0.06090
H          1.71650        2.42590        0.79950
H          3.19780        3.18450        0.46900
H          4.56470        0.66980       -1.18570
