19
qm7 1923 -1809.1
N          1.03990        0.01560       -0.12910
C          2.48950        0.01540        0.01810
C          2.98110        1.11410        0.95330
C          4.41640        0.68730        1.22860
C          4.36300       -0.83690        1.34090
C          3.04540       -1.26980        0.67740
N          3.23470       -2.37030       -0.26730
H          0.75280       -0.74280       -0.74390
H          0.73570        0.88390       -0.56650
H          2.94320        0.15780       -0.97180
H          2.40740        1.13110        1.88840
H          2.92760        2.10820        0.49850
H          5.05630        0.97040        0.38350
H          4.82670        1.15600        2.12770
H          5.25020       -1.28670        0.88220
H          4.35940       -1.14200        2.39430
H          2.36080       -1.61380        1.46400
H          3.86370       -2.08020       -1.01470
H          2.34360       -2.57810       -0.71370
