22
qm7 1381 -2059.67
C          2.65130       -1.54600       -0.22170
C          3.96150       -0.76940       -0.38630
C          4.19990       -0.48300       -1.87060
N          3.86380        0.45040        0.42240
C          5.05120        1.31380        0.43790
C          4.69350        2.57750        1.22570
C          6.27070        0.64100        1.06930
H          2.47600       -1.80630        0.82840
H          2.68050       -2.48150       -0.79110
H          1.79150       -0.96450       -0.57510
H          4.76740       -1.40980       -0.01160
H          3.45140        0.21060       -2.26950
H          4.14460       -1.40670       -2.45610
H          5.19180       -0.05340       -2.04340
H          3.61700        0.20120        1.38070
H          5.30130        1.63310       -0.57990
H          4.44880        2.34810        2.26910
H          3.83270        3.08840        0.77960
H          5.53150        3.28290        1.22490
H          6.04740        0.26850        2.07520
H          7.10160        1.35050        1.15320
H          6.62480       -0.19940        0.46430
