16
qm7 4116 -1534.8
C         -1.72110        0.93490        0.38310
C         -1.33410       -0.37990       -0.20600
N         -0.30780       -1.28590        0.28350
C          0.76960       -0.59600       -0.43270
C          2.02020       -0.09930        0.11580
C          0.89430        0.90490       -0.02350
C         -0.56180        0.88590       -0.59350
H         -2.64620        1.38540        0.04140
H         -1.52070        1.10280        1.43350
H         -2.00650       -0.80130       -0.94930
H         -0.19400       -1.19080        1.29240
H          0.85400       -0.88310       -1.48650
H          2.30700       -0.42550        1.10930
H          2.86530        0.01280       -0.55460
H          0.84370        1.36440        0.96700
H         -0.72440        1.29700       -1.58580
