14
qm7 584 -1396.44
C         -0.02040        0.84760       -0.05010
C         -0.74470       -0.45970       -0.14900
C          0.76200       -0.44530       -0.03940
C          1.50830       -0.92320        1.19690
C          1.12100       -2.14130        1.99960
O          2.17250       -2.18990        1.03350
H          0.03870        1.46620       -0.93820
H         -0.10670        1.40600        0.87480
H         -1.17670       -0.73410       -1.10450
H         -1.32570       -0.78060        0.70750
H          1.29580       -0.66100       -0.96650
H          2.07710       -0.15870        1.71990
H          0.19760       -2.65230        1.75960
H          1.39860       -2.17450        3.04540
