14
qm7 5976 -1491.09
O          0.88940        0.13760        0.02790
C          2.11700        0.04720        0.02520
C          2.81740       -1.30380        0.04130
C          4.31000       -1.22800        0.03030
C          4.96980       -0.06400       -0.01040
C          4.30970        1.27000       -0.05080
N          2.87290        1.18080        0.01910
H          2.48020       -1.86630       -0.83610
H          2.49370       -1.83480        0.94320
H          4.85930       -2.16490        0.05540
H          6.05700       -0.06960       -0.01920
H          4.63990        1.88400        0.79280
H          4.56430        1.79380       -0.97730
H          2.33260        2.03540        0.00280
