17
qm7 1446 -1656.71
C          0.99120       -0.07800        0.09560
C          2.52750       -0.01110        0.06990
C          2.98450       -0.82980       -1.08970
N          3.34630       -1.49100       -1.97420
N          3.03520        1.39180        0.02590
C          2.54020        2.20050        1.14390
C          4.50530        1.42410        0.03150
H          0.58120        0.32420        1.02730
H          0.64300       -1.11540        0.01960
H          0.55300        0.47580       -0.74310
H          2.89580       -0.49480        0.98510
H          1.45900        2.35520        1.07540
H          2.98020        3.20450        1.12100
H          2.77310        1.74830        2.11460
H          4.92170        0.93450       -0.85470
H          4.92280        0.94510        0.92460
H          4.86710        2.45850       -0.00300
