16
qm7 6841 -1610.97
C          0.99340        0.03470        0.05040
C          2.50880       -0.02840        0.01440
N          3.14680        0.99870        0.88790
C          4.19250       -0.00120        1.22470
C          3.18900       -1.12400        0.87940
C          3.71930       -2.26960        0.16940
C          4.15500       -3.22260       -0.41520
H          0.56470       -0.81070       -0.49770
H          0.63090        0.95440       -0.42090
H          0.60420        0.00070        1.07380
H          2.88030        0.02250       -1.01920
H          2.57720        1.26770        1.69110
H          5.07310        0.06400        0.57340
H          4.52920        0.02750        2.26550
H          2.58730       -1.41750        1.75170
H          4.54210       -4.06930       -0.93490
