18
qm7 7105 -1776.51
C          2.66960       -0.99540        1.40190
C          2.42800       -0.21860        0.13710
C          1.64370       -0.68880       -0.84560
C          3.08800        1.08240        0.02670
C          2.35510        2.20140       -0.12900
C          4.60240        1.06270        0.07960
N          5.23740        2.22620       -0.53900
H          3.71920       -1.29630        1.48240
H          2.06250       -1.90720        1.44020
H          2.41060       -0.39320        2.27930
H          1.15100       -1.65260       -0.76700
H          1.47580       -0.12560       -1.75960
H          1.27070        2.17730       -0.16020
H          2.82610        3.17650       -0.20520
H          4.97950        0.16830       -0.43220
H          4.92400        1.00270        1.12510
H          4.97640        2.23940       -1.52510
H          6.24750        2.09650       -0.51900
