18
qm7 937 -1751.53
C          0.93430       -0.08620       -0.06760
C          2.46670       -0.03460        0.06400
C          2.87510       -0.80450        1.33370
C          3.10030       -0.72870       -1.15440
C          2.89750        1.42590        0.05950
C          3.57100        2.08490        1.01190
H          0.59140        0.41460       -0.98070
H          0.44540        0.40390        0.78290
H          0.57510       -1.12100       -0.10590
H          2.43060       -0.36230        2.23290
H          3.96340       -0.81710        1.46380
H          2.54120       -1.84760        1.28490
H          2.80700       -0.24270       -2.09240
H          2.79020       -1.77810       -1.21730
H          4.19500       -0.70860       -1.09840
H          2.61860        1.99180       -0.83090
H          3.89480        1.61600        1.93440
H          3.81810        3.13480        0.88330
