14
qm7 5961 -1465.33
O          1.51450        0.02890        1.27850
C          2.40510        0.00840        0.43790
C          3.01400       -1.26220       -0.12990
C          4.03190       -0.77730       -1.11860
N          5.21290       -0.03210       -0.69980
C          4.04570        0.72130       -1.14020
C          3.03650        1.25210       -0.16610
H          2.23260       -1.84030       -0.62960
H          3.47790       -1.84460        0.66960
H          4.09390       -1.33660       -2.04110
H          5.32780       -0.01880        0.31570
H          4.11680        1.25310       -2.07800
H          3.51100        1.84920        0.61730
H          2.26510        1.82990       -0.68180
