11
qm7 76 -1086.74
C          1.00180       -0.06380        0.03000
O          2.42110       -0.00820        0.02890
C          2.89400        1.33860        0.00000
C          4.33800        1.33860        0.00000
C          5.52830        1.33860        0.00000
H          0.70000       -1.11330        0.05270
H          0.59930        0.39600       -0.87670
H          0.59930        0.43470        0.91660
H          2.51440        1.87430        0.87740
H          2.51440        1.83620       -0.89960
H          6.59350        1.32740        0.00020
