13
qm7 1119 -1278.45
O          0.97810       -0.05210        0.59470
C          2.04450        0.03950       -0.01400
C          3.03760        1.21340        0.02760
C          2.48570        2.64280       -0.12740
N          3.48350        3.09640        0.87200
C          3.51850        1.71270        1.40330
H          2.35360       -0.79000       -0.67210
H          3.88100        1.02700       -0.65450
H          1.44860        2.78100        0.20080
H          2.60040        3.08910       -1.11970
H          4.36670        3.39670        0.45800
H          4.51020        1.36830        1.71080
H          2.81800        1.54650        2.23030
