14
qm7 6255 -1392.7
O          1.58260        2.09210       -1.11250
C          1.68280        1.65640        0.03260
C          2.71250        2.13070        1.04460
N          3.87400        2.69850        0.35000
C          4.75110        3.40530        1.28580
C          5.95590        3.92710        0.53160
O          6.35280        5.08620        0.61150
H          0.94900        0.92960        0.42110
H          3.02040        1.26730        1.64280
H          2.21670        2.86260        1.69110
H          3.52880        3.34690       -0.36680
H          5.12020        2.72620        2.06150
H          4.23530        4.24890        1.75530
H          6.51420        3.17740       -0.05600
