19
qm7 3019 -1836.94
C          1.12740       -0.02560        1.31270
C          2.26440       -0.01280        0.30650
C          2.74150        1.40230        0.00730
O          3.79290        1.32970       -0.95300
C          4.30710        2.62460       -1.31720
C          5.61880        3.01000       -0.69490
C          5.56590        2.59450       -2.13590
H          0.80780       -1.05320        1.51110
H          0.26420        0.53160        0.93540
H          1.43830        0.42300        2.26140
H          1.94280       -0.49690       -0.62380
H          3.10250       -0.61170        0.68330
H          3.11460        1.88190        0.91910
H          1.91960        2.00160       -0.40050
H          3.59900        3.41460       -1.55050
H          6.06910        2.32450        0.01300
H          5.78600        4.05740       -0.47370
H          5.69340        3.35720       -2.89440
H          5.97340        1.62580       -2.40280
