16
qm7 5004 -1648.89
C         -0.45220        1.49030       -0.48070
N         -1.36950        0.62870        0.24870
C         -1.37280       -0.74040       -0.24320
C         -0.25150       -1.55770        0.31130
C          1.02970       -1.18870        0.44500
C          1.62520        0.04080       -0.01210
C          1.00760        1.16150       -0.41330
H         -0.56900        2.49860       -0.06420
H         -0.75310        1.56200       -1.53340
H         -2.30760        1.01010        0.15450
H         -1.39850       -0.79860       -1.33760
H         -2.30540       -1.20310        0.10300
H         -0.53010       -2.54890        0.66230
H          1.72490       -1.89690        0.89320
H          2.71430        0.02660       -0.03660
H          1.64940        1.97480       -0.74970
