11
qm7 3823 -1127.25
C          1.80040        0.45640       -0.79430
C          2.53280        0.07640        0.51330
C          3.32850        1.31740        0.32760
N          3.58860        2.39290        1.05440
O          3.23880        3.44930        0.17300
N          2.50460        2.95660       -0.93760
C          2.68620        1.64880       -0.84290
H          0.73260        0.68790       -0.73960
H          1.96130       -0.24600       -1.61940
H          3.12850       -0.84020        0.44040
H          1.95130        0.04050        1.43890
