16
qm7 2049 -1618.72
N          1.96680       -0.76170       -1.08020
C          2.90690       -0.43170       -0.02100
C          2.87340        1.04040        0.22670
C          3.93730        1.85400        0.11500
C          3.89860        3.33230        0.37060
C          4.82500        3.67230        1.45910
C          5.58070        3.95570        2.34900
H          1.99080       -1.76690       -1.24120
H          2.28770       -0.33130       -1.94640
H          3.91010       -0.77420       -0.29690
H          2.61900       -0.95550        0.89640
H          1.91130        1.44850        0.53100
H          4.89840        1.44370       -0.18870
H          2.88600        3.66460        0.62630
H          4.18830        3.85840       -0.54570
H          6.24960        4.20440        3.14030
