15
qm7 5633 -1482.57
N          2.16000       -0.45180       -1.39490
C          2.11420        0.15790       -0.06670
C          3.16210        1.25750        0.05430
C          2.88800        2.59220       -0.68110
C          3.16550        3.22150        0.69420
O          3.47710        4.29540        1.14520
N          3.02200        2.01660        1.31380
H          1.41810       -1.14890       -1.46660
H          3.03280       -0.96780       -1.50750
H          2.29220       -0.61710        0.68740
H          1.10830        0.55780        0.10390
H          4.19010        0.88860       -0.06080
H          1.86700        2.75670       -1.03750
H          3.61150        2.85640       -1.45470
H          3.52130        1.88850        2.18370
