21
qm7 4272 -2045.81
C          2.11220       -1.33870       -0.09950
C          1.80310        0.14750       -0.00720
C          3.03160        1.00930        0.23210
C          3.91880        0.63410        1.40760
C          3.21190        0.77280        2.74600
C          3.71100        1.61110       -0.98450
C          2.89510        2.48810       -0.07930
H          1.21930       -1.89210       -0.40990
H          2.42560       -1.73980        0.86900
H          2.90870       -1.53530       -0.82410
H          1.07310        0.32080        0.79190
H          1.31120        0.45150       -0.94020
H          4.81280        1.27090        1.42400
H          4.28560       -0.39100        1.28540
H          2.86060        1.79830        2.90050
H          3.89680        0.51990        3.56260
H          2.34760        0.10610        2.81550
H          3.31280        1.39210       -1.96880
H          4.78750        1.73830       -0.97410
H          3.42070        3.20330        0.54460
H          1.94360        2.85570       -0.44890
