17
qm7 3490 -1719.32
O          1.66790       -0.24270       -0.89840
C          2.81910        0.05370       -0.11230
C          3.51260       -1.08510        0.57250
C          4.12590       -0.44490       -0.64410
C          5.12230        0.67360       -0.53760
C          4.25550        1.93330       -0.44080
C          2.99920        1.48220        0.31270
H          0.85600       -0.18600       -0.36700
H          3.09440       -2.07840        0.45750
H          3.97200       -0.91060        1.53750
H          4.13210       -0.96620       -1.59030
H          5.73890        0.55580        0.36090
H          5.78440        0.71590       -1.40780
H          4.76860        2.76410        0.05120
H          3.97390        2.25740       -1.45010
H          3.15640        1.54190        1.39610
H          2.13880        2.10900        0.05680
