15
qm7 3022 -1573.84
C          1.14320        0.64920       -1.75980
C          1.55190        1.04190       -0.54000
C          0.45210        1.23550        0.45900
O          0.66340        1.52640        1.63040
C          2.96430        1.22390       -0.15780
C          3.89410        2.02630       -1.03560
C          3.43540        2.59020        0.27530
H          1.86740        0.45740       -2.54590
H          0.09960        0.50260       -2.01810
H         -0.57530        1.09370        0.08220
H          3.38670        0.37580        0.37360
H          3.51320        2.49020       -1.93810
H          4.92440        1.69720       -1.11220
H          4.14650        2.63830        1.09230
H          2.73320        3.41650        0.26060
