17
qm7 3482 -1642.86
C          2.44860        0.85530        1.96470
O          2.47490        0.74920        0.54900
C          2.94760        1.95080       -0.06360
O          4.31510        2.19590        0.25450
C          4.92170        3.31380       -0.27390
C          6.35490        3.44700        0.15520
C          4.34990        4.21710       -1.08580
H          2.03630       -0.07300        2.37020
H          1.80750        1.68500        2.27880
H          3.45860        0.98620        2.36480
H          2.31370        2.78800        0.25460
H          2.84330        1.80980       -1.14520
H          6.41840        3.49360        1.24700
H          6.82740        4.34930       -0.24710
H          6.93280        2.58280       -0.18860
H          3.32190        4.15560       -1.42160
H          4.91670        5.06880       -1.45300
