20
qm7 1368 -1915.66
C          3.07330       -0.65480       -1.09010
C          2.53060       -0.00560        0.17600
C          3.11850        1.39030        0.43230
N          2.49500        1.98300        1.61550
C          4.60000        1.34870        0.70100
C          5.58120        1.75140       -0.37450
C          5.39550        2.62710        0.83010
H          2.57270       -1.61300       -1.26400
H          4.14680       -0.85130       -1.01030
H          2.90050       -0.01870       -1.96380
H          2.73200       -0.67030        1.02590
H          1.43980        0.06860        0.08210
H          2.90420        2.03920       -0.42540
H          2.65700        1.38230        2.42170
H          1.48570        2.01510        1.48510
H          4.88140        0.53480        1.36100
H          5.20110        2.11740       -1.32190
H          6.50410        1.18930       -0.45590
H          6.18450        2.65380        1.57240
H          4.87160        3.56840        0.70840
