17
qm7 422 -1613.97
C          3.05680       -1.07410       -0.51760
C          2.48440        0.20710        0.07140
N          3.51690        1.24700        0.08930
C          3.47660        2.14060       -1.06710
C          2.97450        2.58750        0.28580
C          3.75620        3.56720        1.09100
H          2.30200       -1.86670       -0.49880
H          3.92280       -1.42170        0.05560
H          3.36810       -0.92920       -1.55740
H          2.16480        0.01030        1.10170
H          1.58650        0.49360       -0.49200
H          2.75470        1.94670       -1.85070
H          4.43850        2.50080       -1.41130
H          1.90600        2.69970        0.42860
H          4.83690        3.44830        0.95770
H          3.52970        3.44640        2.15520
H          3.48920        4.58840        0.80110
