15
qm7 5984 -1477.58
O          1.36730        0.17300        0.87300
C          2.40960        0.06650        0.22820
C          3.05420       -1.27650       -0.03290
C          3.99500       -1.26040       -1.22550
C          4.91050       -0.05070       -1.14090
N          4.09470        1.16270       -1.17980
N          3.09900        1.18860       -0.18140
H          2.26600       -2.01880       -0.19740
H          3.60160       -1.55670        0.87460
H          4.58630       -2.18260       -1.24580
H          3.41610       -1.22810       -2.15740
H          5.51510       -0.07980       -0.22630
H          5.59870       -0.04700       -1.99240
H          4.70760        1.97230       -1.04960
H          2.58410        2.05420       -0.02910
