17
qm7 1568 -1630.2
C          0.95650       -0.12950       -0.00800
C          2.48800       -0.06560       -0.04240
N          2.94440       -0.81140       -1.23090
C          3.02120        1.41390       -0.01240
N          2.54290        2.18640        1.13770
C          4.49740        1.44690        0.01730
C          5.69820        1.47980        0.04270
H          0.56240        0.26710        0.93290
H          0.60280       -1.16440       -0.08430
H          0.51420        0.44000       -0.83290
H          2.87250       -0.59670        0.83810
H          2.61540       -0.35190       -2.07900
H          2.54270       -1.74760       -1.23120
H          2.67930        1.92710       -0.92000
H          2.83710        1.71740        1.99270
H          1.52760        2.20970        1.14610
H          6.76290        1.50890        0.06300
