16
qm7 4337 -1566.5
C          2.21600       -0.12470        1.43710
C          2.61140        0.34810        0.04540
C          2.96910        1.80750        0.02480
C          2.11760        2.77660       -0.34450
C          4.35260        2.21480        0.38760
N          5.27850        1.37460        0.72150
O          6.45810        2.07970        0.99070
H          1.96630       -1.19050        1.41590
H          1.33770        0.41830        1.80290
H          3.02850        0.01730        2.15710
H          1.77710        0.15730       -0.64130
H          3.44730       -0.25480       -0.32820
H          1.09760        2.54100       -0.63380
H          2.40050        3.82470       -0.36660
H          4.56300        3.29980        0.35280
H          7.08200        1.36360        1.21300
