17
qm7 3453 -1635.48
C          1.14930        4.18270       -0.50870
O          2.16520        3.26310       -0.88470
C          3.15260        3.12880        0.13370
C          4.16800        2.14550       -0.35220
C          5.47750        2.41900       -0.44610
O          6.49880        1.61470       -0.86790
C          6.15800        0.29560       -1.27860
H          0.43430        4.26110       -1.33180
H          1.57630        5.17270       -0.32180
H          0.62130        3.82570        0.38050
H          2.68680        2.74620        1.04900
H          3.60400        4.10530        0.34440
H          3.77280        1.17540       -0.63230
H          5.88870        3.38710       -0.17690
H          7.07770       -0.20800       -1.59100
H          5.47590        0.31450       -2.13480
H          5.72730       -0.27300       -0.44780
