12
qm7 5628 -1328.68
N          1.00000        0.00000        0.00000
C          2.15100        0.00000        0.00000
C          3.55700        0.00000        0.00000
C          4.33530       -1.07950       -0.06690
C          5.75800       -0.67020       -0.03980
O          5.75110        0.76780       -0.04330
C          4.38900        1.22160        0.07900
H          4.00050       -2.10570       -0.12680
H          6.26330       -1.02020        0.86490
H          6.30200       -1.02190       -0.92160
H          4.18330        1.92260       -0.73530
H          4.27880        1.73380        1.03970
