19
qm7 1832 -1915.62
C          0.74650        0.01510        0.03700
C          2.23020        0.02420        0.17800
C          3.13650       -0.84880       -0.65690
C          2.73430       -1.48030       -1.95950
C          3.00240       -0.39040       -3.00230
C          2.75280        0.93150       -2.27080
C          3.14700        0.64490       -0.84900
H          0.33210        0.95370        0.41750
H          0.32300       -0.80340        0.62700
H          0.40580       -0.10610       -0.99440
H          2.50680        0.15580        1.22070
H          3.99800       -1.31260       -0.19500
H          3.32600       -2.37640       -2.17250
H          1.67900       -1.76890       -1.95380
H          4.05440       -0.43870       -3.31110
H          2.38460       -0.50150       -3.89820
H          3.35780        1.73470       -2.70200
H          1.70220        1.22850       -2.34060
H          4.01580        1.19870       -0.51770
