15
qm7 2637 -1584.29
C          1.08480       -0.16430       -0.39950
C          2.40720        0.01820       -0.29930
C          3.05420        1.29230       -0.17070
C          4.36360        1.49590       -0.04640
O          4.77440        2.80480        0.08310
C          3.57120        3.56410       -0.15330
C          2.37730        2.61210       -0.12060
H          0.67610       -1.16560       -0.49320
H          0.37800        0.65810       -0.39020
H          3.05270       -0.85870       -0.31410
H          5.16060        0.77220       -0.00550
H          3.66240        4.04950       -1.13240
H          3.48640        4.34640        0.60820
H          1.71030        2.79510       -0.96880
H          1.80740        2.73020        0.80760
