19
qm7 6897 -1901.3
C          1.00870       -0.08330       -0.01570
C          2.49900       -0.05720       -0.03730
C          3.25490       -0.69010       -1.17700
C          3.22230        0.81320       -1.03700
C          4.44650        1.57350       -0.61550
C          5.23050        2.12930       -1.77070
C          5.44950        3.43440       -1.97360
H          0.62780        0.73410        0.60460
H          0.65410       -1.02780        0.40830
H          0.58010        0.02260       -1.01790
H          2.91540       -0.15540        0.95910
H          2.69280       -1.13410       -1.99110
H          4.17340       -1.21640       -0.94180
H          2.61670        1.37790       -1.73880
H          5.11380        0.92940       -0.02930
H          4.13240        2.38340        0.05440
H          5.63840        1.40730       -2.47520
H          5.06170        4.19010       -1.29690
H          6.02360        3.77570       -2.82940
