16
qm7 604 -1606.04
C          0.99660        0.20420       -0.32450
C          2.45970        0.05600        0.00290
C          3.00120       -1.16600        0.14520
C          3.24070        1.30450        0.08160
C          2.84900        2.36610        1.07790
C          4.10170        1.56990        1.29140
H          0.86820        0.81410       -1.22490
H          0.46490        0.68830        0.50140
H          0.51410       -0.76200       -0.50900
H          2.40700       -2.06960        0.05950
H          4.06040       -1.28800        0.35140
H          3.62180        1.64640       -0.87760
H          2.02120        2.18370        1.75290
H          2.95080        3.40220        0.77640
H          5.05280        2.06500        1.13380
H          4.10760        0.85350        2.10460
