20
qm7 1484 -1913.05
C          1.38620        2.08590       -0.42860
C          2.69520        1.76470        0.27580
N          3.81750        2.04230       -0.61780
C          5.13510        1.67990       -0.05530
C          5.59130        2.45790        1.15590
C          5.58020        0.24220       -0.17660
C          6.19450        1.28720       -1.05930
H          0.54080        1.89130        0.23970
H          1.25660        1.46910       -1.32470
H          1.34270        3.13890       -0.72720
H          2.69290        0.70970        0.57100
H          2.76580        2.37150        1.18440
H          3.80390        3.02220       -0.89910
H          6.64490        2.26840        1.39000
H          5.00400        2.17850        2.03640
H          5.47490        3.53370        0.98790
H          4.90380       -0.47000       -0.63580
H          6.19140       -0.18040        0.61200
H          7.22490        1.56920       -0.87170
H          5.93150        1.27560       -2.11120
