13
qm7 5808 -1329.81
N          1.19060        0.15790        0.44060
C          2.44050        0.19630        0.13730
N          3.31220        1.22030        0.38050
C          2.75890        2.55850        0.49130
C          3.82020        3.00690       -0.51990
O          4.16200        4.05990       -1.01370
C          4.25980        1.54570       -0.66510
H          0.79220       -0.74530        0.15980
H          2.92120       -0.67250       -0.34830
H          2.88110        2.97340        1.49340
H          1.73620        2.68030        0.12680
H          4.03280        1.11100       -1.64160
H          5.29040        1.34770       -0.36590
