20
qm7 1518 -1906.02
C          2.79270       -1.46760        0.77920
C          2.24730       -0.12080        1.24420
N          2.98990        1.03680        0.71020
C          2.24510        2.26480        1.02310
C          4.35590        1.10150        1.25420
C          5.18290        2.17420        0.60090
C          5.83260        3.14160        1.26220
H          2.10020       -2.26580        1.06510
H          3.75880       -1.69770        1.23620
H          2.90420       -1.49500       -0.30920
H          2.21300       -0.09590        2.34130
H          1.20820       -0.06770        0.89290
H          1.22660        2.21000        0.62200
H          2.70230        3.14150        0.55300
H          2.17900        2.44250        2.10240
H          4.88490        0.16360        1.05060
H          4.33770        1.22660        2.34480
H          5.24600        2.13700       -0.48480
H          5.79820        3.21520        2.34400
H          6.41310        3.88610        0.72470
