18
qm7 5375 -1696.76
C          2.91030       -0.92800       -0.57390
O          3.18280        0.39830       -1.00740
C          3.88000        1.14410       -0.00330
C          4.11210        2.56840       -0.51440
N          4.80140        3.37440        0.50230
C          6.21360        3.61010        0.21300
C          5.18700        4.69360        0.00870
H          2.36190       -1.44320       -1.36700
H          2.29140       -0.91820        0.32850
H          3.84340       -1.46780       -0.38600
H          4.83800        0.65450        0.20850
H          3.27940        1.16570        0.91400
H          3.13750        3.02240       -0.73710
H          4.64380        2.52510       -1.47580
H          6.65760        3.14730       -0.65810
H          6.86450        3.68690        1.07530
H          5.14120        5.49710        0.73440
H          4.91530        4.96850       -1.00300
