20
qm7 7128 -1918.61
C          1.11770       -0.33710        0.48610
C          2.41500        0.06500       -0.23200
C          2.92980       -1.14220       -1.02610
C          2.30990        1.31420       -1.11610
C          1.15460        1.95670       -1.37510
C          3.59690        1.83500       -1.71900
N          4.55620        2.19690       -0.68600
H          0.73510        0.48270        1.10340
H          1.29560       -1.18870        1.15250
H          0.33760       -0.63290       -0.22410
H          3.14300        0.27970        0.56150
H          2.28160       -1.36260       -1.88120
H          2.97020       -2.03600       -0.39360
H          3.94390       -0.97360       -1.40200
H          0.20040        1.63380       -0.97410
H          1.12640        2.84120       -2.00500
H          3.41110        2.71610       -2.34490
H          4.03430        1.07920       -2.37910
H          4.15430        2.94230       -0.11920
H          5.38380        2.59230       -1.12790
