17
qm7 3734 -1708.02
O          1.17040        0.97670        1.08590
C          2.57370        1.17310        1.23100
C          3.22840        1.18290       -0.14920
C          4.72470        1.40740       -0.08490
C          5.56640        0.36080       -0.15570
C          5.26930        2.75340        0.02130
C          4.57380        3.89630        0.07850
H          0.79450        0.95850        1.98260
H          2.97220        0.35690        1.84270
H          2.73380        2.11760        1.75960
H          2.74510        1.92550       -0.79660
H          3.00900        0.22510       -0.64190
H          5.19550       -0.65610       -0.24640
H          6.64490        0.48030       -0.12530
H          6.35590        2.83310        0.04980
H          3.49060        3.93580        0.05010
H          5.09390        4.84730        0.14880
