12
qm7 6393 -1200.49
O          0.86220        0.91230       -0.80170
N          2.22880        0.85430       -1.09630
C          2.89960        1.07330       -0.00600
C          4.41890        1.10060        0.00000
O          4.94640        0.40580       -1.12010
C          4.90090        2.46170        0.00000
C          5.29810        3.58360        0.00000
H          0.44900        0.72700       -1.66650
H          2.39540        1.28530        0.95360
H          4.75050        0.57590        0.90170
H          4.38240        0.66770       -1.87250
H          5.66060        4.58610       -0.00720
