17
qm7 3202 -1700.73
C          0.95920        0.02170        0.44610
C          2.37940        0.35390       -0.00590
O          2.39790        0.22120       -1.43400
C          3.57670       -0.00600       -2.08140
C          4.81770       -0.08130       -1.59010
C          2.71550        1.77240        0.37830
C          3.47350        2.11730        1.42800
H          0.85940        0.08560        1.53460
H          0.68930       -0.99250        0.13250
H          0.22650        0.69630       -0.01210
H          3.05650       -0.37240        0.46060
H          3.37840       -0.12320       -3.14250
H          5.04910        0.04720       -0.53950
H          5.65210       -0.26850       -2.25870
H          2.30490        2.55370       -0.25820
H          3.89860        1.37440        2.09530
H          3.67540        3.16240        1.64510
