17
qm7 2389 -1642.9
C          0.84300        0.00210       -0.20710
C          2.32410       -0.00160        0.07210
C          2.65950        0.00850        1.54290
C          3.25460       -0.76400       -0.84680
O          2.64900       -1.46960       -1.94250
C          3.22070        0.74410       -0.89350
O          4.33910        1.43810       -0.31600
H          0.61860        0.09490       -1.27450
H          0.36340        0.84340        0.30360
H          0.38730       -0.92510        0.15490
H          3.73590       -0.07900        1.72710
H          2.17060       -0.83040        2.04910
H          2.31320        0.93880        2.00430
H          4.12040       -1.23900       -0.39570
H          2.35860       -0.87380       -2.65360
H          2.75360        1.21810       -1.75090
H          5.15750        0.91570       -0.37450
