18
qm7 4346 -1709.71
C          1.55990       -0.49080       -0.63510
C          2.91300       -0.49220        0.05620
C          3.66840        0.80930       -0.19020
C          5.00820        0.77870        0.51720
C          5.05140        1.18300        1.97140
N          6.04210        0.35810       -0.14980
O          7.19260        0.35190        0.64610
H          1.04390       -1.44050       -0.46100
H          1.67080       -0.35820       -1.71640
H          0.92530        0.31550       -0.25300
H          3.50470       -1.34040       -0.30810
H          2.77090       -0.64830        1.13180
H          3.09370        1.66960        0.17110
H          3.83750        0.95430       -1.26400
H          4.08030        1.56690        2.29410
H          5.79980        1.96710        2.11550
H          5.30710        0.31420        2.58370
H          7.86890        0.01200        0.03130
