19
qm7 2826 -1851.53
C          2.36170       -1.13020       -1.02360
C          3.17060       -0.51640        0.10860
C          3.11260        0.98340        0.07000
C          4.19070        1.77400       -0.04890
C          4.12670        3.27970       -0.07850
C          4.69100        3.85360       -1.37850
O          3.83560        3.56630       -2.48050
H          2.40970       -2.22260       -0.97360
H          2.74750       -0.81800       -2.00000
H          1.30860       -0.83580       -0.96320
H          4.20580       -0.87200        0.04630
H          2.77050       -0.85990        1.06960
H          2.12330        1.43080        0.15760
H          5.18170        1.32880       -0.11930
H          4.70890        3.66260        0.76770
H          3.09190        3.61900        0.05020
H          5.68920        3.45880       -1.59810
H          4.76860        4.94230       -1.30010
H          3.68820        2.60410       -2.48440
