17
qm7 2756 -1730.64
C          0.83870       -0.12020        0.11610
C          2.32630        0.01360        0.00340
C          3.03690        1.15460       -0.09740
C          2.46210        2.54400       -0.07070
C          4.54160        1.12460       -0.23590
C          5.26560       -0.19740       -0.28660
O          5.17070        2.18120       -0.31140
H          0.49090       -0.89170       -0.57930
H          0.29590        0.79510       -0.12530
H          0.56870       -0.43150        1.12950
H          2.83160       -0.94900       -0.00140
H          1.39250        2.56620        0.15010
H          2.61160        3.03470       -1.03810
H          2.95070        3.14570        0.70360
H          4.92330       -0.78430       -1.14270
H          5.12020       -0.74480        0.64830
H          6.33800       -0.01560       -0.40970
