17
qm7 2774 -1706.13
C          2.71440       -1.11560        1.11530
C          2.41240       -0.12880        0.02200
C          1.52820       -0.40360       -0.95190
C          3.12400        1.14630        0.06200
C          2.45750        2.31340        0.10870
C          4.63190        1.09980        0.01140
O          5.15880        0.89180        1.31590
H          3.74630       -1.47610        1.04600
H          2.05790       -1.99150        1.06430
H          2.56800       -0.65640        2.09970
H          1.00020       -1.35170       -0.98560
H          1.31540        0.30260       -1.74870
H          1.37180        2.34830        0.14220
H          2.97940        3.26470        0.12570
H          5.04680        2.03790       -0.37370
H          4.98640        0.29700       -0.64390
H          4.65510        1.47020        1.91410
