11
qm7 6011 -1214.49
O          0.99420       -0.05810        0.14630
C          2.21050       -0.00980        0.04310
C          2.95480        1.25400       -0.05700
C          4.27690        1.11210       -0.16450
N          4.91890       -0.09700       -0.18300
N          4.30700       -1.30810       -0.09440
C          3.01260       -1.28420        0.01430
H          2.42640        2.19370       -0.04020
H          4.93750        1.97000       -0.24570
H          5.93680       -0.08680       -0.26910
H          2.42610       -2.21190        0.09220
