14
qm7 4368 -1454.72
C          1.00000        0.00000        0.00000
C          2.44400        0.00000        0.00000
C          3.63420        0.00000        0.00000
C          5.07810        0.00000        0.00000
N          5.57860        1.35020        0.03990
C          6.92220        1.60010        0.06550
O          7.80220        0.75200        0.06370
H          0.60600        1.02090        0.01170
H          0.60590       -0.52050        0.87830
H          0.60590       -0.50030       -0.88990
H          5.47590       -0.48370       -0.89860
H          5.47650       -0.53820        0.86680
H          4.92420        2.12050        0.03130
H          7.14070        2.68100        0.08850
