20
qm7 5682 -1916.82
C          1.06130       -0.07660        0.02080
C          2.55120       -0.03190       -0.01650
C          3.35410       -0.68410       -1.12240
C          2.71450       -1.41120       -2.25600
C          3.26130        0.82560       -1.04150
C          4.44780        1.64110       -0.64470
N          5.26610        1.84110       -1.83030
H          0.68420        0.67230        0.72470
H          0.72220       -1.06060        0.35910
H          0.60840        0.12700       -0.95430
H          2.96540       -0.08920        0.98520
H          4.28540       -1.15980       -0.83220
H          1.85560       -0.87480       -2.66980
H          2.37820       -2.39900       -1.92740
H          3.43940       -1.55090       -3.06390
H          2.65050        1.34530       -1.77350
H          5.03710        1.14590        0.13490
H          4.11790        2.60940       -0.25550
H          5.57280        0.93300       -2.17600
H          6.11040        2.34670       -1.57030
