12
qm7 7071 -1356.06
C          0.96260       -0.03090        0.00000
C          2.29950       -0.00690        0.00000
C          3.01710        1.21760        0.00000
C          3.61210        2.24830        0.00000
C          4.33410        3.49890        0.00000
C          3.73090        4.81090        0.00000
N          3.25000        5.85640        0.00000
H          0.42600       -0.97440        0.00000
H          0.37290        0.88100        0.00000
H          2.86310       -0.93450       -0.00000
H          5.01240        3.46820       -0.86500
H          5.01240        3.46820        0.86500
