12
qm7 7145 -1362.76
C          1.00000        0.00000        0.00000
C          2.44400        0.00000        0.00000
C          3.63420        0.00000        0.00000
C          5.04010        0.00000        0.00000
C          5.69770       -1.17110        0.00000
C          5.77440        1.22810        0.00000
N          6.38400        2.21410        0.00000
H          0.60600        1.02080        0.01170
H          0.60600       -0.52060        0.87830
H          0.60600       -0.50030       -0.88990
H          5.16880       -2.11970        0.00000
H          6.78350       -1.21400        0.00000
