14
qm7 1502 -1457.1
C          0.98590       -0.01680        0.01220
C          2.52000        0.00000        0.00000
N          2.99320       -0.66930        1.21190
C          3.01150       -0.76160       -1.16660
C          3.41500       -1.37980       -2.11500
C          3.00200        1.36120        0.00000
C          3.39930        2.48310        0.00000
H          0.57540        0.46640       -0.88400
H          0.57980        0.51680        0.88090
H          0.59180       -1.04070        0.03550
H          2.70890       -0.11910        2.01910
H          4.01150       -0.65330        1.20230
H          3.77480       -1.92930       -2.95400
H          3.75700        3.48690       -0.00560
