11
qm7 936 -1131.83
C          0.24100       -1.35790        0.06030
O         -0.96330       -0.82170       -0.50560
N         -1.32270        0.45740       -0.00580
C         -0.31980        1.26820        0.11160
C          1.09980        0.93380       -0.10520
C          1.36190       -0.37620       -0.06910
H          0.48060       -2.26520       -0.50260
H          0.07000       -1.63570        1.10560
H         -0.51290        2.30350        0.43670
H          1.83980        1.71490       -0.19060
H          2.37700       -0.74810       -0.14110
