17
qm7 1946 -1667.02
N          0.99430        0.01680        0.00820
C          2.44760       -0.00420       -0.01160
C          3.02600       -1.26840        0.64100
C          3.30160       -0.88820        2.10260
N          4.48200       -1.54450        2.64020
C          3.47890        0.58980        2.01610
C          2.99130        1.07490        0.86640
H          0.63560       -0.74620       -0.56220
H          0.66520        0.87680       -0.42680
H          2.81290        0.09630       -1.03870
H          3.95700       -1.53810        0.12120
H          2.36700       -2.14130        0.56270
H          2.43690       -1.11430        2.73670
H          5.27980       -1.34840        2.03810
H          4.34520       -2.55270        2.60420
H          3.87870        1.19230        2.82000
H          2.96250        2.12520        0.61360
