12
qm7 912 -1226.07
O          0.98520       -0.00160       -0.05730
C          2.40330        0.08830        0.05900
C          2.85680        1.51580        0.02960
C          2.07950        2.60490       -0.08780
C          4.32210        1.72110        0.14380
O          5.10850        0.78650        0.25480
H          0.76890       -0.94920       -0.03090
H          2.84540       -0.46940       -0.77340
H          2.69450       -0.38490        1.00270
H          1.00080        2.50310       -0.17420
H          2.47620        3.61360       -0.10220
H          4.66920        2.76770        0.12350
