12
qm7 5007 -1256.3
C          1.01740        0.05950       -0.00860
N          2.38600        0.00210        0.44340
O          3.15660        1.11560        0.00170
C          4.40610        0.57460       -0.16560
C          4.51280       -0.73700       -0.00300
C          3.13960       -1.14740        0.27040
O          2.76850       -2.30900        0.28530
H          0.57530        1.00900        0.30230
H          0.45770       -0.77450        0.42320
H          0.99330       -0.02420       -1.09900
H          5.17610        1.28290       -0.41850
H          5.35790       -1.38890       -0.10160
