19
qm7 2311 -1850.55
C          0.91780       -0.03190        0.11560
C          2.43700       -0.01790       -0.03550
C          2.84310        0.04600       -1.50910
C          3.14610        1.05070        0.84890
C          4.20460       -0.01160        1.20330
C          3.16560       -1.09580        0.83750
O          3.65720       -2.27120        0.16880
H          0.61600       -0.05410        1.16830
H          0.48630       -0.91220       -0.37230
H          0.47200        0.86020       -0.33720
H          3.93050        0.08130       -1.63450
H          2.42860        0.93980       -1.98810
H          2.47300       -0.82990       -2.05300
H          2.56340        1.38120        1.71760
H          3.52630        1.93680        0.33230
H          5.08840        0.00480        0.55610
H          4.53450       -0.00820        2.24580
H          2.57830       -1.40040        1.71440
H          4.27080       -1.95240       -0.51380
