19
qm7 2611 -1844.46
C          2.00860       -1.62080       -0.29420
C          1.69290       -0.13690       -0.19560
C          2.90300        0.69960        0.13980
C          3.68730        0.39110        1.39100
C          2.86800        0.55670        2.66100
C          3.58250        1.47730       -0.97090
O          2.68000        2.10730       -0.05420
H          1.13320       -2.17190       -0.65200
H          2.28420       -2.03350        0.68150
H          2.83760       -1.80420       -0.98470
H          0.91170        0.02220        0.55580
H          1.26700        0.18920       -1.15320
H          4.56310        1.04890        1.45840
H          4.08020       -0.63040        1.33750
H          2.48300        1.57750        2.74960
H          3.48650        0.34760        3.53930
H          2.01550       -0.12870        2.68040
H          3.24510        1.34580       -1.99170
H          4.63420        1.71970       -0.88020
