19
qm7 6964 -1898.75
C          0.85530        0.10810        0.17930
C          2.36910        0.03960       -0.01120
C          3.14600        1.02550        0.92420
C          4.16780       -0.09650        1.18590
C          3.07860       -1.10730        0.78090
C          2.76450        0.15550       -1.45560
C          2.55040       -0.84400       -2.31960
H          0.58340        0.06520        1.24030
H          0.35150       -0.72840       -0.31730
H          0.44840        1.04120       -0.22610
H          2.59640        1.32360        1.82590
H          3.55550        1.93080        0.46500
H          5.02820       -0.07820        0.50720
H          4.53070       -0.17710        2.21370
H          3.43750       -1.96860        0.21000
H          2.50290       -1.48530        1.63540
H          3.22240        1.08020       -1.79750
H          2.08810       -1.77960       -2.01660
H          2.83540       -0.74490       -3.36210
