10
qm7 726 -1155.35
C          1.00000        0.00000        0.00000
C          2.19020        0.00000        0.00000
C          3.59620        0.00000        0.00000
C          4.25320        1.13800        0.00000
C          5.65900        1.13800        0.00000
C          6.84910        1.13800        0.00000
H         -0.06460       -0.00040       -0.00000
H          4.10880       -0.95740       -0.00000
H          3.74060        2.09540       -0.00000
H          7.91380        1.13840       -0.00000
