14
qm7 5334 -1457.72
C          1.17480        0.11130       -0.76510
O          2.27060        0.16620        0.14620
C          3.01290        1.33880        0.07000
C          2.25400        2.63940        0.08690
C          4.35040        1.22880        0.08070
C          5.24780        2.32820        0.04290
N          5.98230        3.22420        0.00690
H          0.79410       -0.91420       -0.77130
H          1.49330        0.36400       -1.78210
H          0.36380        0.77000       -0.43930
H          1.47390        2.61020        0.85500
H          1.78270        2.82280       -0.88380
H          2.89080        3.49950        0.31380
H          4.80040        0.24230        0.11210
