11
qm7 1129 -1162.12
O          1.76220       -0.25980        1.46050
C          2.37200       -0.05560        0.19920
C          2.91340        1.33200        0.18870
C          4.20670        1.63650        0.00000
C          4.67610        2.96180        0.00000
N          5.06030        4.04680        0.00000
H          1.38580       -1.15590        1.45270
H          1.61730       -0.17080       -0.58450
H          3.15300       -0.80900        0.05690
H          2.18600        2.12490        0.35650
H          4.94280        0.85570       -0.15600
