9
qm7 189 -949.91
N          0.98110       -0.09830        0.00000
C          2.33660        0.00840        0.00000
C          3.05350        1.13800        0.00000
C          4.45950        1.13800        0.00000
N          5.61030        1.13800        0.00000
H          0.54170       -1.01340        0.00000
H          0.39030        0.72570        0.00000
H          2.83530       -0.96180        0.00000
H          2.55930        2.10180       -0.00000
