14
qm7 6650 -1440.98
N          2.08830       -0.49650       -1.29970
C          2.52780       -0.10900        0.03640
C          3.01270        1.30640        0.03450
C          2.27320        2.46300       -0.12420
C          3.07750        3.63680       -0.06510
C          4.40600        3.33950        0.13590
S          4.67780        1.65570        0.25100
H          1.86420       -1.48920       -1.29860
H          2.87010       -0.38070       -1.94290
H          3.30740       -0.79990        0.37710
H          1.68670       -0.20400        0.73250
H          1.20120        2.45880       -0.28390
H          2.70010        4.64680       -0.16840
H          5.23440        4.03040        0.21890
