19
qm7 2375 -1864.42
C          1.00190        0.00230       -0.05490
C          2.51960        0.03660        0.01140
C          3.06230        1.12800        0.91080
C          4.46810        0.63590        1.17580
O          4.40970       -0.79740        1.18230
C          3.14160       -1.20870        0.64120
C          3.36670       -2.33990       -0.34710
H          0.65790       -0.81720       -0.69240
H          0.61440        0.93900       -0.46730
H          0.56090       -0.13510        0.93840
H          2.91950        0.18520       -1.00050
H          2.49900        1.17140        1.85040
H          3.04220        2.12130        0.45380
H          5.15150        0.93680        0.37370
H          4.86780        0.99460        2.12780
H          2.53580       -1.56980        1.48070
H          4.05320       -2.03130       -1.14460
H          2.42890       -2.67250       -0.79870
H          3.83670       -3.19230        0.15370
