20
qm7 1278 -1917.82
C          1.41540        0.35360        0.79590
C          2.69660        0.55380       -0.01890
C          2.43680        0.22100       -1.50150
C          3.70770        0.25990       -2.35240
N          3.39890       -0.09340       -3.73630
C          3.18750        1.97070        0.16200
C          4.36300        2.29370        0.71560
H          1.57870        0.59280        1.85250
H          1.08080       -0.68760        0.73940
H          0.60190        0.98860        0.42810
H          3.44740       -0.14910        0.36580
H          1.69440        0.91750       -1.91550
H          1.99430       -0.78200       -1.56570
H          4.44970       -0.44200       -1.95740
H          4.15270        1.25980       -2.34230
H          3.03590       -1.04520       -3.77550
H          4.25950       -0.09210       -4.28300
H          2.53380        2.76960       -0.18590
H          5.05210        1.53800        1.07930
H          4.66060        3.33310        0.81680
