13
qm7 6335 -1321.55
O          1.06560        0.21890        0.46870
N          2.35540        0.02410       -0.04950
C          2.96290        1.16160       -0.15160
C          4.38690        1.26910       -0.70020
C          4.55570        2.77780       -0.64650
C          3.45830        3.36430       -0.14920
N          2.52990        2.42380        0.15890
H          0.71650       -0.69160        0.49160
H          4.43570        0.88610       -1.72180
H          5.09260        0.75330       -0.04530
H          5.44520        3.29400       -0.97520
H          3.26680        4.41640        0.00790
H          1.59600        2.61310        0.48880
