18
qm7 6848 -1782.73
C          0.99890        0.12170        0.21260
C          2.47500       -0.11460       -0.08020
N          2.74220       -1.48590       -0.54420
C          2.76260       -1.50400       -2.01000
C          3.24590       -0.13750       -2.36350
C          2.30920        1.03270       -2.48510
C          3.02060        0.74460       -1.18350
H          0.82050        1.17100        0.46800
H          0.66840       -0.49510        1.05490
H          0.36190       -0.12270       -0.64400
H          3.04820        0.05780        0.83830
H          2.04790       -2.13770       -0.18910
H          3.43630       -2.28440       -2.37400
H          1.75960       -1.68390       -2.41250
H          4.21100       -0.11770       -2.84860
H          2.64440        1.88830       -3.06110
H          1.24740        0.84070       -2.56850
H          3.82440        1.39520       -0.86640
