11
qm7 1125 -1174.94
O          2.04510       -0.96980       -0.79890
C          1.86620        0.10610       -0.23850
C          2.97790        1.01300        0.21550
C          4.34490        0.42600       -0.10790
C          5.41030        1.32600        0.34320
N          6.24060        2.05230        0.70750
H          0.84540        0.47240       -0.03380
H          2.86400        1.16650        1.29460
H          2.84170        1.98160       -0.27880
H          4.43820        0.25750       -1.18740
H          4.46030       -0.55170        0.37510
