21
qm7 2873 -1982.75
C          2.87030       -0.80240       -1.15280
C          2.44510       -0.03820        0.09240
C          2.96490        1.41290        0.13210
C          2.39770        2.11940        1.36880
C          4.49890        1.51020        0.11830
O          5.04870        0.77750        1.21080
C          6.46810        0.84000        1.22530
H          2.38540       -1.78390       -1.17330
H          3.95130       -0.96930       -1.17240
H          2.58410       -0.26460       -2.06190
H          2.77520       -0.58780        0.98110
H          1.34840       -0.02310        0.12490
H          2.58830        1.94150       -0.75400
H          2.71300        1.62670        2.29410
H          1.30290        2.12220        1.34470
H          2.73120        3.16140        1.40760
H          4.80340        2.56100        0.19680
H          4.89620        1.11700       -0.82410
H          6.82960        0.26480        2.08200
H          6.80520        1.87570        1.33230
H          6.88040        0.40150        0.31120
