20
qm7 7039 -1911.75
C          0.68440       -0.25550        0.34710
C          2.08110       -0.41060       -0.23450
C          2.94630        0.81490        0.06270
C          4.34680        0.72320       -0.54890
C          5.16630       -0.37920        0.05340
C          5.38970       -1.66920       -0.69410
N          6.46130       -0.69110       -0.55020
H          0.08280       -1.14460        0.13210
H          0.17380        0.61240       -0.08250
H          0.72430       -0.12780        1.43380
H          2.00640       -0.56120       -1.31780
H          2.53920       -1.31110        0.18920
H          3.02640        0.95290        1.14830
H          2.45230        1.70960       -0.33650
H          4.86310        1.67420       -0.36870
H          4.26750        0.60920       -1.63730
H          5.13820       -0.39130        1.13670
H          4.98090       -1.77710       -1.69110
H          5.48700       -2.58790       -0.12800
H          7.13170       -0.98480        0.16240
