15
qm7 4436 -1472.35
C          0.85810       -0.25290       -0.06750
C          2.33350       -0.17740        0.14680
C          3.04940        0.95370        0.05090
C          4.51760        0.93540        0.28240
O          5.14150       -0.08210        0.56120
N          5.09890        2.18620        0.14840
N          6.49140        2.33070        0.33380
H          0.63520       -0.94210       -0.88760
H          0.42550        0.72210       -0.31350
H          0.36860       -0.62500        0.83770
H          2.83240       -1.11370        0.39520
H          2.57960        1.89760       -0.19420
H          4.55200        3.00830       -0.09240
H          6.94490        1.62020       -0.25400
H          6.70200        2.00240        1.28360
