14
qm7 5940 -1417.61
O          0.84080       -0.25720       -0.14840
C          2.18810        0.16440        0.17110
C          3.39550       -0.65530       -0.46580
N          4.19840        0.63560       -0.20720
C          2.89880        1.22530       -0.78270
C          2.89980        0.66530       -2.15610
C          3.23770       -0.61270       -1.94120
H          0.29920        0.54110       -0.03240
H          2.27040        0.36940        1.24680
H          3.76230       -1.56460        0.00810
H          4.35840        0.83760        0.77820
H          2.73920        2.29320       -0.64060
H          2.68680        1.16450       -3.08520
H          3.36500       -1.41300       -2.64910
