14
qm7 6284 -1383.17
O          1.31720        0.02540        0.64990
C          2.36830        0.19010        0.04290
N          3.22510        1.24860        0.19300
C          2.85130        2.50970        0.79620
C          3.10130        3.51020       -0.29840
C          4.29600        2.89390       -0.98730
O          4.09550        1.47260       -0.90950
H          2.75070       -0.55770       -0.67310
H          3.52070        2.67570        1.64670
H          1.81640        2.50870        1.14920
H          2.24770        3.52660       -0.98670
H          3.27840        4.52720        0.06000
H          4.37420        3.19630       -2.03510
H          5.23220        3.13600       -0.47280
