16
qm7 5059 -1608.86
C          1.01640       -0.10380        0.36810
N          2.45080       -0.13210        0.08080
C          3.14280       -1.33470        0.17030
C          2.61640       -2.51880        0.50440
C          3.04460        1.08990       -0.27400
C          4.52520        1.09010       -0.57700
O          2.41730        2.14940       -0.34790
H          0.58700        0.89610        0.26230
H          0.84860       -0.43330        1.39870
H          0.49560       -0.76750       -0.32980
H          4.20610       -1.31110       -0.05080
H          1.57000       -2.66320        0.74520
H          3.24800       -3.40140        0.54480
H          5.09410        0.77770        0.30260
H          4.83900        2.10600       -0.83710
H          4.73920        0.44350       -1.43210
