16
qm7 3817 -1580.33
C          1.84450        0.17370       -0.79410
N          1.83180       -0.02580        0.64790
C          0.53860        0.05230       -0.03940
C         -0.33720        1.23460        0.20350
C         -1.70130        0.70910       -0.21490
O         -1.67880       -0.69750        0.07830
C         -0.34210       -1.15020       -0.20070
H          2.16560        1.15220       -1.13040
H          2.19370       -0.65840       -1.39280
H          2.06070       -0.99040        0.89520
H         -0.34510        1.48370        1.27080
H         -0.05850        2.12780       -0.36380
H         -2.52240        1.19000        0.32420
H         -1.86400        0.83060       -1.29180
H         -0.31740       -1.53030       -1.22770
H         -0.09760       -1.96180        0.49070
