19
qm7 2356 -1849.53
C          0.92430       -0.02140        0.19890
C          2.42730       -0.00550       -0.06570
C          2.72740        0.01870       -1.56370
C          3.19220        1.07140        0.74820
C          4.16610       -0.01110        1.25170
O          5.49550        0.00760        0.69700
C          3.20960       -1.09350        0.71670
H          0.70310       -0.03910        1.27210
H          0.45730       -0.90500       -0.25060
H          0.44340        0.86770       -0.22420
H          3.80260        0.03100       -1.76780
H          2.29260        0.90810       -2.03370
H          2.30800       -0.86400       -2.05940
H          2.61540        1.53670        1.55610
H          3.65120        1.87190        0.15830
H          4.24260       -0.02630        2.34560
H          5.38010        0.02030       -0.26780
H          3.68070       -1.86910        0.10370
H          2.64020       -1.59130        1.51040
