15
qm7 3599 -1528.17
O          0.92950        0.11660       -0.31040
C          2.28710        0.00370        0.09770
C          3.06030        1.26910       -0.26780
C          3.55330        1.18660       -1.70660
O          4.37760        0.03560       -1.93920
C          3.83590       -1.12890       -1.46360
C          2.85210       -1.20650       -0.56270
H          0.50470        0.75570        0.28600
H          2.29680       -0.13460        1.18490
H          2.43880        2.16270       -0.13840
H          3.92890        1.35600        0.39540
H          4.15970        2.06950       -1.93840
H          2.71800        1.17190       -2.41680
H          4.31810       -1.99130       -1.90470
H          2.46410       -2.17450       -0.26430
