15
qm7 2652 -1517.16
C          2.58380       -0.34650        1.55120
C          2.60950        0.05550        0.08430
C          3.08140        1.45570       -0.10290
C          4.17980        1.89100       -0.69220
O          4.29470        3.25860       -0.70430
C          3.07870        3.63440       -0.02260
O          2.28440        2.49170        0.36170
H          2.24380       -1.38230        1.65260
H          1.90240        0.28900        2.12700
H          3.58040       -0.27220        1.99960
H          1.60490       -0.04780       -0.34160
H          3.25800       -0.63810       -0.46410
H          4.97940        1.34110       -1.15530
H          2.48370        4.27070       -0.68700
H          3.33950        4.20210        0.87750
