15
qm7 2776 -1613.54
C          0.85680        0.35720       -0.27710
C          2.30850        0.08730        0.01510
C          2.83690       -1.10950        0.33640
C          2.13800       -2.37090        0.43690
C          2.74850       -3.51070        0.78380
C          3.19850        1.20810       -0.04530
C          3.94060        2.15050       -0.09670
H          0.51600        1.24040        0.27540
H          0.19420       -0.46310        0.00760
H          0.71780        0.54970       -1.34630
H          3.90890       -1.15910        0.53560
H          1.07560       -2.40460        0.21540
H          3.80780       -3.55440        1.01560
H          2.18830       -4.43910        0.84370
H          4.59930        2.98610       -0.14170
