19
qm7 5737 -1736.93
N          1.71360        2.42860       -1.80210
C          2.53580        2.60220       -0.60970
C          3.87100        1.87630       -0.78470
C          4.78080        1.99850        0.44550
N          5.99190        1.16350        0.27910
C          5.23130        3.44520        0.72680
O          6.18930        3.43880        1.78720
H          0.82070        2.90560       -1.67200
H          1.48960        1.44230       -1.93130
H          2.00080        2.20930        0.26190
H          2.69390        3.67240       -0.45340
H          4.38990        2.26670       -1.67070
H          3.67390        0.81290       -0.97970
H          4.25970        1.61830        1.33210
H          6.47770        1.44510       -0.57550
H          5.70820        0.19530        0.11940
H          4.39560        4.07710        1.03730
H          5.70510        3.89520       -0.15240
H          6.67030        2.59100        1.67170
