15
qm7 4061 -1489.07
C          0.99080       -0.03140        0.06630
C          2.50420       -0.03820        0.09170
C          3.11190        1.11370        0.88330
O          4.29600        0.55790        1.47720
C          4.16280       -0.79500        1.46380
N          5.06270       -1.54350        1.97130
N          3.02640       -1.16930        0.82460
H          0.60980       -0.90450       -0.47430
H          0.61510        0.86890       -0.43000
H          0.57070       -0.06480        1.07770
H          2.90680       -0.05050       -0.92820
H          2.46330        1.47650        1.68820
H          3.38300        1.95410        0.23760
H          4.77690       -2.51760        1.87210
H          3.04400       -2.06610        0.35780
