19
qm7 1443 -1924.91
C          0.96640        0.00220       -0.05300
C          2.50780       -0.00060       -0.00230
C          2.95700       -0.00140        1.46100
C          3.06430       -1.22290       -0.76830
C          3.33230       -0.67020       -2.13240
C          3.33420        0.66660       -2.13240
C          3.06870        1.22000       -0.76830
H          0.59270        0.00380       -1.08290
H          0.55940        0.88730        0.44880
H          0.55630       -0.88210        0.44730
H          4.04970       -0.00420        1.54120
H          2.58330       -0.88660        1.98700
H          2.58790        0.88610        1.98660
H          2.34470       -2.04700       -0.80850
H          3.99920       -1.59850       -0.33740
H          3.53370       -1.28670       -2.99730
H          3.53830        1.28230       -2.99730
H          4.00500        1.59210       -0.33730
H          2.35220        2.04680       -0.80830
