19
qm7 3266 -1776.51
C          1.92990        3.58430       -0.12240
C          2.67770        2.26840       -0.20270
O          4.07670        2.54140       -0.16500
C          4.84580        1.33910       -0.20840
C          6.32950        1.68780       -0.23250
O          7.09730        0.48500       -0.27950
C          8.49010        0.76050       -0.35040
H          0.84950        3.42220       -0.16780
H          2.22360        4.24630       -0.94340
H          2.16960        4.10660        0.80960
H          2.42800        1.75550       -1.13820
H          2.40010        1.62950        0.64310
H          4.58800        0.75800       -1.10260
H          4.62200        0.72030        0.66850
H          6.59090        2.26490        0.66050
H          6.54910        2.30970       -1.10910
H          9.02880       -0.19070       -0.36070
H          8.81340        1.33620        0.52240
H          8.72510        1.30490       -1.26970
