16
qm7 7036 -1621.72
C          1.00000        0.00000        0.00000
C          2.44400        0.00000        0.00000
C          3.63420        0.00000        0.00000
C          5.06560        0.01760        0.05760
N          5.82840       -0.67340       -0.98380
C          5.82840        0.78370       -0.99510
C          7.07300        1.51650       -0.63030
H          0.60600        1.02090        0.01160
H          0.60590       -0.52050        0.87820
H          0.60600       -0.50030       -0.89000
H          5.49970       -0.04130        1.05020
H          5.19110       -1.04750       -1.68780
H          5.28850        1.26220       -1.80360
H          7.62540        1.02430        0.17690
H          6.82590        2.53070       -0.30140
H          7.73500        1.59350       -1.49820
