13
qm7 1778 -1355.63
C          1.01340       -0.06300       -0.28170
N          2.42150        0.00870        0.09030
C          2.96070        1.38570        0.00000
C          2.40700        2.21890        1.08990
C          1.95640        2.89750        1.97400
C          4.40470        1.38570        0.00000
N          5.55580        1.38570        0.00000
H          0.68210       -1.10530       -0.23390
H          0.84870        0.29120       -1.30460
H          0.37840        0.50740        0.40300
H          2.95460       -0.58850       -0.54250
H          2.64030        1.81770       -0.95780
H          1.56110        3.49200        2.76530
