16
qm7 5255 -1546.98
C          1.12600        1.54320        0.25680
N          2.27960        1.09030       -0.09870
O          3.22600        2.11800        0.04640
C          4.49640        1.63520       -0.39600
C          5.48280        2.75900       -0.33090
C          6.32790        2.97760        0.89860
C          6.96290        2.47520       -0.36900
H          0.24250        0.88780        0.21600
H          0.96780        2.57740        0.60690
H          4.41060        1.28780       -1.43210
H          4.80300        0.79390        0.23680
H          5.12940        3.63240       -0.86760
H          6.22840        2.28530        1.72730
H          6.52900        3.99980        1.19880
H          7.59480        3.15810       -0.92640
H          7.29520        1.44340       -0.39550
