17
qm7 2429 -1696.12
C          0.81200        0.12090       -0.58910
C          2.18350       -0.09100       -0.01360
C          3.16710       -0.90880       -0.83070
O          3.21390        0.52150       -0.81050
C          2.38150        0.07460        1.50150
C          1.34370        0.61990        2.45370
C          1.70390       -0.83470        2.50070
H          0.80030       -0.00820       -1.67700
H          0.45730        1.13370       -0.37350
H          0.10360       -0.59570       -0.16210
H          2.82760       -1.38770       -1.74040
H          3.95120       -1.44350       -0.30930
H          3.40770        0.34590        1.76240
H          0.36470        0.88840        2.07600
H          1.68910        1.25730        3.26040
H          2.29020       -1.18800        3.34110
H          0.97440       -1.54920        2.13790
