15
qm7 3264 -1600.33
C          1.00000        0.00000        0.00000
C          2.44400        0.00000        0.00000
C          3.63420        0.00000        0.00000
C          5.07810        0.00000        0.00000
C          5.56010        1.36120        0.00000
C          5.95750        2.48310        0.00000
C          6.43960        3.84430        0.00000
H          0.60590        1.02130        0.01170
H          0.60580       -0.52070        0.87860
H          0.60580       -0.50050       -0.89030
H          5.45580       -0.53450       -0.87850
H          5.45580       -0.53450        0.87850
H          5.64530        4.54370       -0.28160
H          7.26350        3.97060       -0.70940
H          6.80360        4.13330        0.99080
