14
qm7 182 -1321.3
N          1.04570        0.00860        0.08150
C          2.49320        0.02970       -0.07010
C          3.09310        1.06150        0.91030
C          4.15710       -0.00780        1.24680
C          3.11480       -1.06750        0.82030
H          0.59910       -0.78480       -0.37680
H          0.58440        0.84030       -0.28500
H          2.87160        0.07780       -1.09570
H          2.46690        1.32990        1.77020
H          3.47890        1.97810        0.45550
H          5.04100        0.02830        0.59930
H          4.47890       -0.04850        2.29030
H          3.51970       -1.93450        0.29120
H          2.49550       -1.42000        1.65460
