15
qm7 1095 -1424.98
N          0.99270       -0.08720       -0.60870
C          2.41270        0.03620       -0.24500
C          3.25700       -0.85170       -1.18870
O          2.85890       -0.66040       -2.55060
C          2.79470        1.48430       -0.36940
C          3.25080        2.24190        0.63760
H          0.44990        0.49330        0.03220
H          0.69080       -1.04540       -0.43070
H          2.55680       -0.30680        0.78640
H          3.10010       -1.90950       -0.95100
H          4.32680       -0.63470       -1.10480
H          1.91970       -0.38480       -2.49180
H          2.69680        1.93140       -1.35800
H          3.37460        1.85020        1.64200
H          3.51250        3.28250        0.46920
