13
qm7 6656 -1314.63
N          2.81950       -0.69950       -1.33480
C          2.38290       -0.04070       -0.10050
C          2.88700        1.37310       -0.04830
N          2.00460        2.36280        0.11890
S          2.80640        3.81170        0.14980
C          4.37290        3.15170       -0.02370
C          4.26270        1.78160       -0.11640
H          2.41830       -1.63460       -1.36390
H          3.82890       -0.81840       -1.31700
H          2.75660       -0.59700        0.76610
H          1.28770       -0.06000       -0.05880
H          5.25640        3.77300       -0.05000
H          5.10390        1.11350       -0.23450
