17
qm7 5445 -1570.14
C          5.89030       -0.77780        0.09530
O          6.28400        0.41890       -0.56430
N          5.43470        1.45500       -0.15200
C          5.79400        2.59400       -0.67030
C          7.00630        2.77510       -1.55350
C          4.98860        3.83260       -0.30760
N          5.63410        4.50340        0.82190
H          6.14480       -0.71730        1.15690
H          6.43370       -1.61390       -0.35220
H          4.81670       -0.95190       -0.02580
H          7.00100        2.03710       -2.35950
H          7.91120        2.65440       -0.95140
H          7.01000        3.77280       -2.00020
H          3.96980        3.53780       -0.03650
H          4.93740        4.50360       -1.16950
H          5.67650        3.84250        1.60050
H          5.03520        5.26420        1.13910
