15
qm7 2092 -1513.26
N          3.38190       -1.12870       -2.30730
C          3.49100       -0.62850       -1.26220
C          3.59110       -0.00450        0.07360
N          4.43010        1.20470        0.07450
C          3.70030        2.36350       -0.50980
C          4.28880        3.21670        0.63010
C          4.36650        1.88240        1.39630
H          4.04180       -0.73550        0.75650
H          2.57940        0.19250        0.45250
H          2.60460        2.30400       -0.48990
H          4.02210        2.64690       -1.51610
H          5.26490        3.66000        0.40090
H          3.63200        3.98050        1.05250
H          5.25650        1.75410        2.01890
H          3.47610        1.67270        2.00270
