14
qm7 4968 -1476.14
C          0.98460        0.00630       -0.00860
N          2.42930       -0.03110       -0.00160
C          3.22870        1.08530        0.00440
C          4.54110        0.66940        0.01140
C          4.53090       -0.74430        0.00920
C          3.21660       -1.16110        0.00060
O          2.74310       -2.40230       -0.00460
H          0.64200        1.04420       -0.00100
H          0.62200       -0.50890        0.88450
H          0.63160       -0.49310       -0.91440
H          2.80600        2.08170        0.00350
H          5.41080        1.31340        0.01730
H          5.38970       -1.40170        0.01310
H          1.77360       -2.39090       -0.01280
