15
qm7 1793 -1458.11
C          1.37350       -0.05450        0.39520
N          1.91020       -0.99820       -0.59790
C          2.28840       -2.25830        0.08380
C          3.58720       -2.12980        0.76870
C          4.65450       -2.03160        1.31100
N          1.11300       -1.14520       -1.69510
C          1.79610       -1.15160       -2.79220
H          1.17160        0.91110       -0.08230
H          2.08650        0.13740        1.20380
H          0.43470       -0.41800        0.82850
H          2.39060       -3.05640       -0.66350
H          1.50330       -2.58650        0.77650
H          5.60660       -1.94140        1.78240
H          1.27660       -1.26330       -3.75630
H          2.89520       -1.04570       -2.82870
