14
qm7 582 -1446.88
C          5.39440       -1.74850       -0.51710
C          4.57030       -0.94520       -0.17810
C          3.55380        0.02940        0.23700
C          4.27140        1.34430        0.24450
C          4.39840        2.17050       -1.01230
C          3.48800        2.62520        0.09400
H          6.12840       -2.46040       -0.81970
H          3.17770       -0.19960        1.23900
H          2.70670        0.02850       -0.45690
H          5.09580        1.36110        0.95150
H          3.94640        1.79930       -1.92510
H          5.32460        2.71230       -1.16720
H          3.79660        3.48050        0.68490
H          2.41880        2.56830       -0.07560
