17
qm7 3798 -1750.8
C          0.98510       -0.00650       -0.03280
C          2.50300       -0.10760       -0.01420
C          3.15510        1.27870       -0.03010
C          4.66430        1.21370        0.02840
C          5.35470        1.71730        1.06360
C          5.38650        0.63290       -1.05710
C          5.99080        0.13580       -1.96850
H          0.53840       -1.00560       -0.01520
H          0.63760        0.50500       -0.93620
H          0.61750        0.54530        0.83820
H          2.82690       -0.69140       -0.88400
H          2.81540       -0.66020        0.88000
H          2.76870        1.86360        0.81480
H          2.85620        1.81900       -0.93750
H          4.85550        2.18200        1.90730
H          6.44010        1.68090        1.09410
H          6.52790       -0.30640       -2.77380
