12
qm7 6297 -1314.01
O          0.91880        0.07940       -0.02240
C          2.14280        0.05520       -0.02280
N          2.91260        1.18640       -0.01150
C          4.28210        1.20510       -0.01140
C          4.97930        2.34740        0.00000
C          6.38560        2.34740        0.00000
C          7.57570        2.34740        0.00000
H          2.72020       -0.88380       -0.03230
H          2.38970        2.05530       -0.00270
H          4.78510        0.23990       -0.02110
H          4.47660        3.30940        0.00970
H          8.64090        2.34850        0.00000
