17
qm7 2927 -1723.94
C          1.18840       -0.88930        0.15340
C          2.53420       -0.26260       -0.20320
C          3.20610       -1.02270       -1.34100
C          2.35920        1.19980       -0.59970
O          1.34090        1.61990       -1.14530
C          3.51240        2.10820       -0.32110
C          3.45750        3.40750       -0.63790
H          0.69480       -0.32170        0.95000
H          1.32010       -1.91880        0.50240
H          0.51160       -0.90770       -0.70790
H          3.16940       -0.30650        0.68980
H          2.60840       -0.97540       -2.25810
H          3.34570       -2.07620       -1.07800
H          4.18980       -0.59890       -1.56900
H          4.39100        1.67870        0.14430
H          2.57740        3.84150       -1.10600
H          4.29420        4.06730       -0.43560
