12
qm7 26 -1155.53
C          0.33720        1.02280       -0.13050
C          0.99610       -0.33060        0.21120
C         -0.32990       -0.99630       -0.21130
C         -1.02070        0.34050        0.13050
H          0.58770        1.85480        0.53190
H          0.48320        1.33460       -1.17070
H          1.23190       -0.45100        1.27490
H          1.87360       -0.59680       -0.38280
H         -0.37410       -1.25730       -1.27480
H         -0.64060       -1.85870        0.38290
H         -1.83860        0.63710       -0.53220
H         -1.35870        0.41000        1.17090
