16
qm7 4910 -1496.89
C          1.37990       -0.51400        0.17610
C          2.75670       -0.08740       -0.29530
O          3.16530        1.04480        0.48590
C          4.36830        1.58140        0.17500
N          5.13690        1.13710       -0.75760
O          6.29140        1.93210       -0.80190
C          7.13330        1.44550       -1.83960
H          1.02530       -1.38090       -0.38800
H          0.66160        0.30370        0.05630
H          1.39850       -0.76790        1.24110
H          2.71390        0.18790       -1.35540
H          3.46760       -0.90920       -0.15260
H          4.58970        2.44170        0.82640
H          8.02550        2.07650       -1.88640
H          6.61630        1.49480       -2.80310
H          7.43970        0.41630       -1.62750
