13
qm7 4999 -1358.07
C          0.99270        0.01400       -0.00790
N          2.43220       -0.02280       -0.00060
C          3.26660        1.05620        0.00270
N          4.52730        0.68500        0.00940
C          4.49510       -0.67630        0.01050
O          5.57910       -1.45980        0.01670
C          3.20620       -1.15050        0.00430
H          0.65160        1.05240        0.00240
H          0.62880       -0.50550        0.88200
H          0.63890       -0.48470       -0.91360
H          2.91460        2.07980       -0.00010
H          5.31080       -2.39040        0.01610
H          2.78670       -2.14590        0.00300
