13
qm7 2717 -1393.8
C          0.97180       -0.02120        0.00080
C          2.31400        0.00000        0.00000
C          3.01710       -1.21760        0.00000
C          3.61210       -2.24830        0.00000
C          3.13710        1.21890       -0.04810
C          2.94570        2.28300        1.00890
O          4.15100        1.51930        0.93100
H          0.39580        0.89770       -0.01930
H          0.41730       -0.95460        0.02170
H          4.15010       -3.16730        0.00420
H          3.34290        1.55840       -1.05870
H          2.29280        2.08960        1.85130
H          2.98920        3.32070        0.70230
