9
qm7 186 -925.91
N          0.95890       -0.04980       -0.11650
C          2.11920       -0.01470       -0.08370
C          3.55510       -0.00030       -0.01060
C          4.34050       -0.77030       -1.04360
N          4.34770        0.68580       -1.04150
H          3.96350        0.04480        0.99320
H          3.81300       -1.23790       -1.86730
H          5.25440       -1.26460       -0.73880
H          5.21370        1.05240       -0.64340
