17
qm7 1387 -1791.32
C          0.97400        0.06200       -0.00190
C          2.45620        0.02440        0.00200
C          3.31520        1.05900        0.00440
C          4.67020        0.55530        0.00530
C          5.86590        1.43530        0.00400
C          4.64280       -0.78770        0.00330
C          3.22150       -1.27020        0.00260
H          0.59900        1.09040       -0.00080
H          0.57730       -0.44300        0.88410
H          0.58250       -0.43950       -0.89190
H          3.05360        2.10630        0.00360
H          5.58650        2.49370       -0.03480
H          6.49720        1.22700       -0.86570
H          6.45810        1.28060        0.91150
H          5.50560       -1.43650        0.00260
H          3.00950       -1.86120       -0.89350
H          3.00840       -1.86090        0.89880
