16
qm7 169 -1464.45
C          1.16590       -0.49420       -0.08370
C          2.67770       -0.33460       -0.14400
C          3.09190        1.12260        0.05970
N          4.55010        1.23250        0.00270
C          4.97820        2.61390        0.17780
H          0.88910       -1.54330       -0.23030
H          0.67690        0.09830       -0.86400
H          0.77570       -0.17270        0.88760
H          3.03470       -0.69660       -1.11610
H          3.13420       -0.96740        0.62550
H          2.72900        1.47110        1.03410
H          2.63340        1.74670       -0.71690
H          4.88300        0.88810       -0.89760
H          4.66460        3.00540        1.15080
H          4.58350        3.26000       -0.61310
H          6.07070        2.66420        0.13950
