13
qm7 517 -1323.05
N          1.02190       -0.07340       -0.09780
C          2.48300       -0.01010       -0.02160
C          3.28710       -0.71060       -1.07590
C          3.24970        0.79450       -1.04360
C          4.42580        1.50220       -0.62740
C          5.41030        2.09690       -0.28440
H          0.60440        0.69380        0.42910
H          0.67770       -0.93080        0.33400
H          2.88340       -0.03860        0.99020
H          2.76190       -1.20560       -1.88460
H          4.19380       -1.21750       -0.76660
H          2.66870        1.27910       -1.82310
H          6.28560        2.62510        0.01720
