13
qm7 5039 -1347.27
C          2.90140       -1.11520        0.51080
N          2.33480        0.12350        0.02460
C          3.07500        1.24520        0.01410
C          2.62800        2.52270       -0.21090
O          3.70330        3.35830       -0.13550
C          4.74000        2.51530        0.13110
N          4.41970        1.24500        0.23330
H          2.18480       -1.92890        0.36080
H          3.12050       -1.05080        1.58170
H          3.81720       -1.37680       -0.02940
H          1.32390        0.18330        0.07560
H          1.67390        2.97850       -0.42410
H          5.71620        2.96750        0.23260
