17
qm7 6889 -1662.97
C          1.02280        0.07300        0.03510
C          2.52170        0.01500       -0.11700
N          3.15610        1.13880       -0.28970
N          4.50030        1.07930       -0.42250
C          5.25920        0.01630        0.22230
C          4.67420       -1.30040       -0.25240
C          3.18600       -1.33890        0.04660
H          0.58750       -0.92460       -0.06090
H          0.59720        0.72340       -0.73390
H          0.78010        0.47580        1.02240
H          4.91820        1.99310       -0.23690
H          6.31360        0.08410       -0.06390
H          5.19760        0.10750        1.31270
H          5.18000       -2.14470        0.22890
H          4.83370       -1.40750       -1.33330
H          3.02220       -1.65450        1.08370
H          2.68800       -2.06660       -0.60270
