19
qm7 6833 -1785.39
C          1.00300       -0.10870       -0.04680
C          2.49220       -0.11820       -0.05320
N          3.21900       -0.59450       -1.22520
C          3.26000        0.83970       -0.93380
C          4.54850        1.44770       -0.46370
C          4.29790        2.52450        0.59500
N          5.54210        3.17410        0.99510
H          0.63730        0.65890        0.64270
H          0.62030       -1.07750        0.28870
H          0.58360        0.09930       -1.03690
H          2.91050       -0.39260        0.90810
H          2.58950       -0.78920       -2.00540
H          2.71460        1.48760       -1.61020
H          5.06090        1.88700       -1.32900
H          5.21670        0.67780       -0.05660
H          3.82490        2.07790        1.47700
H          3.60750        3.28160        0.20690
H          6.19560        2.47460        1.34730
H          5.35840        3.80880        1.77090
