16
qm7 1977 -1657.9
N          2.55940       -0.60750       -1.32060
C          2.30890        0.06050       -0.05350
C          2.87300        1.43410       -0.03710
C          2.21000        2.59410        0.12920
C          3.14710        3.68890        0.12250
C          4.38860        3.21180       -0.04000
C          4.34600        1.71560       -0.16440
H          2.09750       -1.51430       -1.31360
H          3.55400       -0.79940       -1.41150
H          2.74160       -0.52650        0.76460
H          1.22670        0.09510        0.11650
H          1.14510        2.71170        0.25550
H          2.86880        4.72620        0.23320
H          5.28960        3.80420       -0.08510
H          4.73810        1.39770       -1.13480
H          4.91420        1.24090        0.64120
