16
qm7 1921 -1657.91
N          1.04180        0.03090        0.14450
C          2.49420       -0.02800       -0.03080
C          2.90900       -1.25450       -0.87540
C          3.38390       -0.66880       -2.16970
C          3.43370        0.66700       -2.12270
C          3.00070        1.14980       -0.83300
C          3.08130        2.42350       -0.43130
H          0.80700        0.86630        0.67550
H          0.73490       -0.76620        0.69620
H          2.97630       -0.06920        0.95280
H          2.08450       -1.95760       -1.03840
H          3.72630       -1.80070       -0.38920
H          3.66380       -1.26400       -3.02720
H          3.76110        1.30590       -2.93030
H          2.75480        2.71810        0.56040
H          3.47460        3.19990       -1.07990
