14
qm7 838 -1360.43
C          3.43200       -0.99090        1.39340
O          3.30350       -0.52450        0.05590
C          3.48490        0.87940       -0.04500
C          4.93220        1.33030        0.11400
C          5.94000        0.71610       -0.81970
O          5.25710        2.18130        0.94320
H          3.22260       -2.06470        1.40310
H          2.71190       -0.49060        2.04990
H          4.45050       -0.83480        1.76210
H          2.85390        1.40130        0.68450
H          3.15370        1.19230       -1.04120
H          5.94370       -0.36980       -0.70150
H          6.93860        1.09580       -0.58330
H          5.69390        0.98330       -1.85070
