21
qm7 1535 -1934.27
C          0.83990       -0.35630       -0.27500
C          2.33850       -0.65300       -0.35280
N          2.64380       -1.30460       -1.62910
C          3.15220        0.64240       -0.19670
C          4.67630        0.45750       -0.22520
C          5.23710       -0.46810        0.85630
N          4.92750        0.01610        2.19750
H          0.58780        0.10260        0.68690
H          0.25230       -1.27640       -0.36640
H          0.52250        0.32860       -1.06880
H          2.58650       -1.34670        0.45760
H          2.38790       -0.68510       -2.39720
H          2.06120       -2.13450       -1.73330
H          2.86720        1.13490        0.74150
H          2.88100        1.34370       -0.99700
H          5.14380        1.44590       -0.12830
H          4.98270        0.07540       -1.20680
H          6.32580       -0.52780        0.74420
H          4.85010       -1.48500        0.73690
H          5.33680        0.94030        2.32590
H          5.37540       -0.59060        2.88260
