17
qm7 2323 -1724.71
C          1.05750        0.10890        0.06900
C          2.38730        0.01500       -0.03290
C          3.13880       -1.28750       -0.03200
C          4.15160       -1.32970       -1.17110
C          4.97170       -0.04420       -1.19640
C          4.04150        1.16400       -1.20620
O          3.15170        1.16720       -0.08300
H          0.57380        1.08020        0.09070
H          0.42720       -0.77060        0.13740
H          2.45990       -2.14410       -0.11280
H          3.66480       -1.38430        0.92590
H          4.81130       -2.19710       -1.05810
H          3.62610       -1.44670       -2.12770
H          5.60500       -0.00890       -0.30210
H          5.62780       -0.02790       -2.07270
H          4.63380        2.08380       -1.15560
H          3.45450        1.20630       -2.13270
