13
qm7 5922 -1309.47
N          1.59850       -0.84580       -0.64560
N          2.81830       -0.31770       -0.16970
C          3.24540        0.93050       -0.61240
O          2.64810        1.57100       -1.47720
C          4.55230        1.39880        0.00030
C          4.49590        1.47730        1.46910
C          4.45610        1.54620        2.66690
H          1.71690       -1.02330       -1.64920
H          0.91260       -0.08030       -0.62950
H          3.26660       -0.76120        0.63100
H          4.78940        2.38510       -0.41390
H          5.34360        0.71160       -0.31850
H          4.42040        1.61710        3.73070
