17
qm7 5361 -1575.19
C          4.39060       -0.09670       -2.09780
O          4.45480       -0.61180       -0.77320
C          4.27850        0.39930        0.20950
C          5.46060        1.36000        0.30750
C          6.80470        0.76130        0.65580
N          5.24740        2.62170        0.05750
N          6.32470        3.43320        0.12950
H          4.40920       -0.94080       -2.79280
H          5.25780        0.53750       -2.30570
H          3.46430        0.46420       -2.25600
H          4.17820       -0.09750        1.18040
H          3.34900        0.95060        0.02710
H          6.68250       -0.26750        1.00560
H          7.28780        1.33830        1.44880
H          7.43860        0.75560       -0.23570
H          6.01780        4.40850        0.08420
H          6.92800        3.31140       -0.68790
