18
qm7 4680 -1723.15
C          1.19760       -0.55190        0.41040
C          2.38570        0.11830       -0.28770
N          2.61530       -0.54720       -1.57720
C          2.27670        1.61610       -0.51540
C          1.19310        2.35980       -0.21940
C          3.51600        2.28390       -1.07120
O          3.74740        1.86100       -2.40790
H          1.02100       -0.10950        1.39790
H          1.38860       -1.62030        0.56400
H          0.27460       -0.46240       -0.17480
H          3.26900       -0.05380        0.34100
H          1.74300       -0.51950       -2.11000
H          2.78900       -1.53850       -1.40720
H          0.28470        1.93710        0.19490
H          1.18210        3.43170       -0.39850
H          4.39310        2.02910       -0.46580
H          3.43000        3.37560       -1.07890
H          3.53270        0.90310       -2.41390
