13
qm7 3882 -1287.26
C          0.91670       -1.04170        0.94560
C          1.15980       -0.32840       -0.34720
C          0.87320        1.13130       -0.49760
O         -0.25320        1.49740        0.31400
N         -1.41860        0.74340        0.00960
C         -1.18630       -0.51820       -0.18480
N          0.00380       -1.22730       -0.19390
H          1.49400       -1.92870        1.16560
H          0.48620       -0.52280        1.79170
H          1.91140       -0.70150       -1.02730
H          1.73250        1.72070       -0.16470
H          0.66170        1.38870       -1.54130
H         -2.03560       -1.17460       -0.43610
