17
qm7 2522 -1697.99
C          0.90740       -0.07560        0.36210
C          2.36640        0.08260       -0.01440
O          2.98490        1.16150        0.74180
C          4.13780        0.31920        1.00320
C          3.35890       -0.93870        0.58710
C          4.02900       -1.84840       -0.37650
C          5.04240       -2.62430        0.02450
H          0.48170       -0.96470       -0.11410
H          0.32790        0.79260        0.03150
H          0.77830       -0.17520        1.44510
H          2.48640        0.26830       -1.08990
H          4.98470        0.61030        0.37190
H          4.43500        0.35310        2.05510
H          2.94660       -1.48470        1.44590
H          3.68160       -1.88710       -1.40520
H          5.40980       -2.61460        1.04710
H          5.53360       -3.29690       -0.67350
