12
qm7 1811 -1260.42
C          0.97800       -0.09770       -0.15930
N          2.41540       -0.00950        0.07400
C          2.89950        1.40000        0.07990
C          2.39980        2.18230        1.23560
N          1.97850        2.81280        2.11640
C          4.38060        1.44530        0.03210
N          5.54100        1.46970       -0.05490
H          0.68360       -1.15140       -0.19610
H          0.69680        0.36060       -1.11300
H          0.40510        0.36900        0.64770
H          2.90000       -0.51720       -0.66770
H          2.54210        1.88310       -0.83960
