18
qm7 660 -1774.46
C          0.73130        1.26310       -0.22210
C         -0.72780        1.26100        0.22690
C         -1.45650        0.00140       -0.23360
C         -0.72880       -1.26360        0.21250
C          0.73010       -1.26200       -0.23640
C          1.45940       -0.00260        0.22310
H          0.77530        1.34380       -1.31540
H          1.24090        2.14420        0.18390
H         -1.23670        2.14720       -0.16880
H         -0.77210        1.32860        1.32100
H         -2.47740       -0.00040        0.16420
H         -1.53920        0.00770       -1.32730
H         -0.77330       -1.34380        1.30580
H         -1.23850       -2.14490       -0.19340
H          1.23910       -2.14830        0.15960
H          0.77450       -1.33020       -1.33040
H          1.54050       -0.00870        1.31610
H          2.47990       -0.00060       -0.17550
