15
qm7 2531 -1510.24
C          0.93790        0.14360        0.18810
C          2.39830       -0.13260       -0.12820
O          2.54610       -1.50060       -0.57190
C          2.69300       -1.50310       -2.00670
C          3.15230       -0.14410       -2.38870
O          2.15540        0.88160       -2.40560
C          2.94330        0.72980       -1.21880
H          0.79030        1.18220        0.49890
H          0.59140       -0.51800        0.98870
H          0.29590       -0.05200       -0.67780
H          2.99880       -0.02110        0.78090
H          3.42000       -2.27430       -2.27530
H          1.72670       -1.75000       -2.45850
H          4.03580       -0.06900       -2.99700
H          3.66830        1.47550       -0.94050
