16
qm7 4099 -1581.72
C          0.98290        0.10240        0.21920
C          2.46070       -0.10030       -0.09360
N          2.75780       -1.48320       -0.52490
C          2.77360       -1.52270       -1.99770
C          3.16190       -0.14040       -2.39220
O          2.11430        0.83550       -2.39890
C          2.94170        0.74730       -1.23020
H          0.78670        1.14740        0.48220
H          0.67350       -0.52440        1.06230
H          0.34370       -0.14620       -0.63540
H          3.04900        0.11440        0.80510
H          2.05970       -2.13160       -0.16760
H          3.49600       -2.26550       -2.34710
H          1.78270       -1.77670       -2.39000
H          4.02550       -0.02990       -3.02530
H          3.63880        1.53330       -0.99290
