15
qm7 6956 -1560.97
C          2.38460       -0.53610       -1.40590
C          2.50590        0.01660        0.00530
C          2.97460        1.42610        0.00350
C          2.29480        2.62520       -0.00570
N          3.16640        3.68310       -0.00220
C          4.36370        3.14570        0.01000
N          4.30080        1.78160        0.01500
H          2.03320       -1.57240       -1.37850
H          3.34990       -0.51830       -1.92370
H          1.67390        0.04790       -2.00110
H          3.19700       -0.60750        0.58390
H          1.53140       -0.04510        0.50360
H          1.22370        2.78240       -0.01550
H          5.30130        3.68530        0.01580
H          5.09230        1.15350        0.02370
