17
qm7 6941 -1775.09
C          1.01240        0.02370        0.57020
C          2.26920        0.00340        0.10970
C          3.04800       -1.24300       -0.25290
C          4.11240       -0.79100       -1.22170
C          5.33730       -0.04520       -0.76460
C          4.12690        0.70950       -1.24900
C          3.07290        1.21820       -0.29810
H          0.49220        0.96080        0.74350
H          0.47320       -0.89490        0.77740
H          2.40060       -1.99490       -0.71570
H          3.51340       -1.67400        0.64040
H          4.12870       -1.33620       -2.15450
H          5.57220       -0.02840        0.29350
H          6.20940       -0.06630       -1.40870
H          4.15580        1.21920       -2.20120
H          3.54730        1.67270        0.57830
H          2.44110        1.96550       -0.78900
