13
qm7 4932 -1299.28
C          1.12040       -0.07940        0.60030
C          2.52000        0.00000        0.00000
O          2.47550       -0.49020       -1.35020
N          2.61650       -1.88950       -1.34970
C          2.62960       -2.30260       -2.57150
C          3.00200        1.36120        0.00000
N          3.38620        2.44620        0.00000
H          1.10310        0.29960        1.62740
H          0.76010       -1.11410        0.60800
H          0.40280        0.49920        0.00770
H          3.20640       -0.62150        0.58930
H          2.73690       -3.37660       -2.78780
H          2.53870       -1.62360       -3.43670
