12
qm7 6344 -1241.88
O          1.02390        0.09040       -0.31110
N          2.36620       -0.00880        0.07510
C          2.93610        1.15200        0.07710
C          4.37970        1.31340        0.45960
O          4.60790        2.73030        0.34910
C          3.40500        3.26180       -0.06520
C          2.36830        2.45430       -0.25770
H          0.72170       -0.83580       -0.25990
H          5.03240        0.77920       -0.23630
H          4.55240        0.99010        1.48950
H          3.42700        4.33250       -0.19690
H          1.36570        2.66670       -0.57270
