17
qm7 2441 -1646.83
C          0.90000        0.08740        0.03650
C          2.40920       -0.02600        0.01630
C          3.18400        0.90990        0.95240
O          3.96980       -0.19800        1.46610
C          3.03040       -1.14600        0.87380
C          3.77320       -2.25300        0.14110
O          4.59700       -2.95880        1.06630
H          0.44420       -0.74310       -0.51310
H          0.57770        1.02050       -0.43730
H          0.50410        0.07350        1.05790
H          2.79610        0.00120       -1.00980
H          2.60940        1.38610        1.75320
H          3.81030        1.65400        0.45270
H          2.36670       -1.54400        1.65300
H          4.41830       -1.85410       -0.64830
H          3.07300       -2.96210       -0.30950
H          5.07230       -2.27070        1.57230
