12
qm7 539 -1221.45
N          0.93270       -0.03460        0.03820
C          2.09220       -0.01630        0.02560
C          3.53280        0.00710       -0.00610
C          4.21350        1.02210        0.93180
N          5.22670       -0.00950        1.26230
C          4.24540       -1.04730        0.86210
H          3.93590        0.04770       -1.02760
H          3.62310        1.33640        1.80160
H          4.61750        1.91600        0.44670
H          6.05590        0.02330        0.66660
H          4.67630       -1.89370        0.31830
H          3.66590       -1.43750        1.70810
