17
qm7 3261 -1655.43
C          3.86950        3.61640       -3.12510
C          4.33520        3.50480       -1.68600
O          5.17180        2.35320       -1.57400
C          5.60870        2.11970       -0.23860
C          6.21410        0.72410       -0.18610
C          6.67240        3.12200        0.18170
O          6.55230        3.87550        1.14340
H          3.24700        4.50400       -3.26570
H          3.29220        2.73170       -3.41110
H          4.72580        3.67220       -3.80460
H          3.46860        3.40410       -1.02280
H          4.89730        4.40380       -1.41070
H          4.76220        2.17300        0.45600
H          7.04120        0.62680       -0.89850
H          5.46750       -0.02770       -0.46300
H          6.59510        0.49100        0.81310
H          7.57830        3.14650       -0.44840
