16
qm7 4878 -1508.17
C          0.93350       -0.39840        0.09600
C          2.42170       -0.09150       -0.01240
O          2.99840       -0.96640       -0.98380
C          2.66600        1.35710       -0.42090
C          4.13110        1.67180       -0.29990
N          4.54490        2.60670        0.49390
O          5.93840        2.69120        0.39550
H          0.45140        0.22640        0.85340
H          0.77950       -1.45030        0.35980
H          0.42830       -0.23830       -0.86310
H          2.90770       -0.30630        0.94600
H          2.46210       -0.92150       -1.79450
H          2.09700        2.04510        0.21370
H          2.38450        1.52010       -1.46680
H          4.82840        1.08410       -0.92360
H          6.15120        3.40590        1.02430
