17
qm7 3145 -1719.24
C          0.81120        0.24090       -0.08020
C          2.27500        0.06110        0.23340
O          2.68260       -1.04510        0.61160
C          3.20680        1.28740        0.08710
C          2.62210        2.72190        0.21320
C          3.93920        3.12880        0.89970
C          4.09550        1.65270        1.30890
H          0.70110        0.75000       -1.04100
H          0.33300        0.81820        0.71410
H          0.32660       -0.73700       -0.15210
H          3.81170        1.18570       -0.82690
H          1.74780        2.80740        0.86840
H          2.40900        3.23040       -0.73080
H          4.71050        3.47780        0.20410
H          3.84750        3.84370        1.72070
H          5.11720        1.26420        1.28530
H          3.64610        1.41260        2.28010
