15
qm7 1667 -1534.19
C          1.10460       -0.03700       -0.23650
N          2.51540        0.04080        0.04940
C          3.28120       -1.04500        0.35510
N          4.54940       -0.86010        0.58260
C          4.71210        0.62370        0.41120
C          3.33340        1.14410        0.03140
C          3.06730        2.42260       -0.25520
H          0.64740        0.94870       -0.36520
H          0.57940       -0.53750        0.58440
H          0.93350       -0.61120       -1.15320
H          2.77660       -2.02440        0.38780
H          5.05210        1.05540        1.35790
H          5.44470        0.81520       -0.37870
H          3.85040        3.17270       -0.22270
H          2.07430        2.75610       -0.53030
