15
qm7 6262 -1468.02
O          0.62160        0.03060       -0.72040
C          1.85720       -0.42960       -0.18570
C          2.86180        0.72400       -0.12170
N          2.41950        1.94820       -0.11130
N          4.21150        0.51210       -0.06680
C          4.94970       -0.63680       -0.01790
C          6.28240       -0.71660        0.03080
H          0.80650        0.30170       -1.63840
H          2.23070       -1.24130       -0.81450
H          1.68390       -0.80230        0.82770
H          1.38690        1.90650       -0.12890
H          4.74030        1.37900       -0.03090
H          4.36680       -1.55460       -0.01690
H          6.90950        0.16880        0.03380
H          6.77820       -1.68150        0.06790
