14
qm7 6333 -1445.43
O          1.04330        0.09430       -0.39280
N          2.36100       -0.01230        0.06630
C          2.93740        1.14390        0.10670
C          4.35820        1.26710        0.58230
C          4.54470        2.77350        0.69380
C          3.32160        3.35390        0.05730
C          2.38850        2.45850       -0.27500
H          0.72740       -0.82550       -0.33130
H          5.02960        0.83080       -0.16320
H          4.49940        0.76090        1.54020
H          5.45630        3.09950        0.18300
H          4.60810        3.08640        1.74230
H          3.20270        4.42010       -0.09390
H          1.42440        2.61890       -0.72160
