18
qm7 1961 -1770.53
N          0.67940        1.16070        0.43180
C          1.72000        0.79040       -0.51510
C          3.01620        1.33660       -0.01630
C          4.09490        1.73070       -0.99110
C          3.37300        2.79570       -0.20540
C          4.06590        3.47840        0.88930
C          5.19060        4.19930        0.78110
H         -0.21730        0.81900        0.09180
H          0.60350        2.17630        0.46020
H          1.47130        1.17590       -1.51010
H          1.78290       -0.30000       -0.58260
H          3.33290        0.83780        0.89440
H          3.88990        1.66830       -2.05360
H          5.12030        1.49050       -0.73120
H          2.66980        3.42030       -0.74710
H          3.60800        3.39270        1.87410
H          5.69020        4.32200       -0.17330
H          5.63310        4.67270        1.65120
