15
qm7 2594 -1602.58
C          2.43500       -0.50180       -1.40890
C          2.49590        0.06050        0.00210
C          2.89740        1.48820        0.00290
C          2.19070        2.67280        0.01340
C          3.15440        3.70960        0.00650
C          4.38230        3.09250       -0.00750
O          4.23650        1.74290       -0.00930
H          2.13640       -1.55450       -1.38510
H          3.40940       -0.43550       -1.90390
H          1.70960        0.04380       -2.02130
H          3.20540       -0.52430        0.59970
H          1.51460       -0.04620        0.47950
H          1.11490        2.77280        0.02410
H          2.97690        4.77580        0.01090
H          5.40290        3.45120       -0.01640
