14
qm7 145 -1324.02
C          0.84630       -0.00980       -0.23400
C          2.32320       -0.02940        0.05040
C          2.69140       -0.00700        1.50840
C          3.22750       -0.76930       -0.91160
N          3.18910        0.68930       -0.89210
H          0.63180       -0.00360       -1.30850
H          0.38450        0.88090        0.20500
H          0.36580       -0.89370        0.19810
H          3.77590       -0.02940        1.66200
H          2.26450       -0.87580        2.02010
H          2.30290        0.89840        1.98630
H          2.79000       -1.24040       -1.78360
H          4.13270       -1.23630       -0.54260
H          4.01150        1.07180       -0.42250
