10
qm7 6420 -1057.63
C          1.89040        0.32260        0.30480
O          1.32950        0.71330       -0.98540
C          2.46370        1.38040       -1.28120
N          2.60420        2.52780       -1.90780
S          3.79970        3.35040       -1.00200
C          3.72860        2.27990        0.39180
C          2.96920        1.23790       -0.02250
H          2.14550       -0.74210        0.31290
H          1.27930        0.57210        1.17560
H          4.13360        2.55800        1.35320
