15
qm7 5901 -1428.52
N          0.77610        1.74530       -0.27810
N          2.06630        1.70300       -0.67800
C          2.86840        1.29180        0.25050
C          4.37950        1.18580       -0.00470
C          5.06540        2.28580       -0.82030
O          6.09560        2.44240        0.18800
C          5.31980        1.64530        1.11310
H          0.17800        1.91850       -1.09130
H          0.60900        2.54620        0.33760
H          2.51290        1.00900        1.25910
H          4.64010        0.18320       -0.36920
H          4.50500        3.21620       -0.95500
H          5.48120        1.96320       -1.77900
H          5.91940        0.85500        1.57320
H          4.87280        2.27070        1.89280
