14
qm7 875 -1416.89
O          1.01120       -0.05680        0.65590
C          2.04870        0.04290        0.00150
C          3.04960        1.22020        0.02960
C          2.48410        2.65350       -0.15280
C          3.54820        3.13200        0.85280
C          3.56460        1.69730        1.41330
H          2.32800       -0.77180       -0.68800
H          3.88330        1.02850       -0.66260
H          1.45420        2.78250        0.19980
H          2.56880        3.07130       -1.15950
H          4.49260        3.43310        0.38510
H          3.22940        3.91170        1.54880
H          4.54750        1.32050        1.70840
H          2.86070        1.53790        2.23840
