15
qm7 1224 -1484.65
C          1.07360       -0.01100        0.02950
C          2.58510       -0.01010        0.07850
C          3.27500       -1.35620       -0.08310
C          3.40760       -1.71480       -1.50360
C          3.51420       -2.01410       -2.66280
N          3.17760        1.14130        0.23140
N          4.52680        1.12880        0.23290
H          0.68050        0.99620        0.19280
H          0.68560       -0.67430        0.80720
H          0.74090       -0.36850       -0.94850
H          2.67270       -2.11150        0.43450
H          4.25380       -1.35400        0.40530
H          3.60670       -2.28110       -3.69030
H          4.88840        0.95710       -0.70970
H          4.87160        2.06090        0.47770
