16
qm7 4321 -1570.47
C          1.01900        0.02880       -0.13980
C          2.51990       -0.05050       -0.01500
C          3.06260       -1.45130       -0.08280
C          3.23810        1.07690        0.14120
C          4.70940        1.15630        0.27030
N          5.30820        2.29390        0.42280
O          6.68770        2.07270        0.51570
H          0.65040        1.05890       -0.09140
H          0.54110       -0.53310        0.66960
H          0.69570       -0.39480       -1.09640
H          2.61190       -2.06600        0.70360
H          4.14460       -1.51270        0.04210
H          2.81890       -1.90050       -1.05130
H          2.74710        2.04620        0.18000
H          5.27740        0.21420        0.23050
H          7.03590        2.97700        0.62640
