19
qm7 2754 -1904.94
C          3.06950       -2.48270       -1.28020
C          2.97080       -1.68810       -0.00730
C          2.49510       -2.23390        1.12320
C          3.39070       -0.23430       -0.07360
C          4.89260       -0.05190       -0.32680
C          5.27780        1.40190       -0.33310
C          5.79080        2.03790       -1.39390
H          2.52410       -1.98020       -2.08530
H          2.64560       -3.48650       -1.17030
H          4.11400       -2.59820       -1.58400
H          2.17800       -3.27220        1.16460
H          2.40540       -1.65920        2.04060
H          3.11910        0.27590        0.86070
H          2.81440        0.26200       -0.86530
H          5.17470       -0.51930       -1.27770
H          5.46800       -0.55870        0.45760
H          5.13420        1.95340        0.59400
H          5.95850        1.53020       -2.33910
H          6.05590        3.08950       -1.33720
