17
qm7 1890 -1651.81
N          0.74830        0.02190        0.07480
C          2.20110        0.02470        0.19130
C          3.05460       -0.84250       -0.69360
C          2.60170       -1.43470       -1.98920
N          2.88560       -0.36990       -2.96910
C          2.62060        0.90610       -2.27640
C          3.06660        0.63800       -0.87540
H          0.35040        0.88790        0.43630
H          0.33820       -0.73210        0.62390
H          2.55650        0.14680        1.21400
H          3.93250       -1.31950       -0.28060
H          3.16080       -2.34120       -2.23950
H          1.53450       -1.67840       -1.98380
H          3.88270       -0.40280       -3.17610
H          3.19420        1.71590       -2.73830
H          1.55760        1.16100       -2.33290
H          3.95250        1.18670       -0.58860
