16
qm7 4728 -1639.14
C          0.75740       -1.30020        0.82150
C          1.64850       -0.18610        0.26470
N          0.53420        0.31480       -0.56090
C         -0.23090        1.39000        0.10900
C         -1.57230        0.80290        0.39220
C         -1.57520       -0.50780        0.14770
C         -0.23680       -0.93490       -0.29780
H          1.17970       -2.30760        0.76560
H          0.41130       -1.11910        1.84610
H          2.48120       -0.56520       -0.34090
H          2.06820        0.50410        1.00400
H          0.23070        1.75370        1.03420
H         -0.32960        2.23610       -0.57870
H         -2.41770        1.37580        0.74290
H         -2.42020       -1.17170        0.26190
H         -0.24740       -1.62950       -1.14470
