17
qm7 6380 -1655.63
C          1.00630        0.13250        0.47170
C          2.41980        0.11280       -0.09090
C          3.40180        1.05700        0.62390
C          3.91180       -0.18550        1.35950
N          3.26070       -0.96860        0.35500
C          2.74970       -2.19500        0.65380
N          3.21630       -3.06760        1.47910
H          0.38310       -0.63620        0.00260
H          0.53350        1.09920        0.26590
H          0.98530       -0.02170        1.55640
H          2.43400        0.20390       -1.18280
H          2.96440        1.83210        1.25970
H          4.14200        1.51650       -0.04110
H          4.99590       -0.31920        1.37350
H          3.49340       -0.32110        2.36240
H          1.85190       -2.45400        0.06760
H          4.07350       -2.70230        1.90070
