13
qm7 3863 -1312.66
C          1.04570        1.16140       -0.19850
N         -0.18130        1.34560        0.56710
N         -1.33860        0.81220        0.12090
C         -1.42860       -0.47250       -0.01290
O         -0.51210       -1.47080        0.14660
C          0.88100       -1.33020        0.13290
C          1.59130       -0.21800       -0.07360
H          1.79390        1.85160        0.20870
H          0.90600        1.42950       -1.25170
H         -0.31750        2.34870        0.70700
H         -2.39390       -0.92900       -0.28330
H          1.32990       -2.30920        0.25040
H          2.67320       -0.30560       -0.12600
