22
qm7 1756 -2055.96
C          1.24230       -0.38210       -0.15690
N          2.67140       -0.10630       -0.10270
C          2.92890        1.33490       -0.08290
C          4.44000        1.58460       -0.03030
C          4.80780        3.07620        0.08810
C          6.31410        3.22300        0.31600
C          4.39410        3.87870       -1.14640
H          1.07990       -1.46430       -0.16850
H          0.78600        0.03620       -1.06020
H          0.72830        0.01830        0.72290
H          3.12610       -0.52190       -0.91530
H          2.45600        1.78710        0.79650
H          2.50160        1.79690       -0.97910
H          4.91750        1.15760       -0.92240
H          4.85650        1.05010        0.83440
H          4.29380        3.49800        0.96090
H          6.88570        2.81710       -0.52610
H          6.62480        2.69350        1.22310
H          6.58980        4.27640        0.43610
H          4.83560        3.46120       -2.05780
H          4.72180        4.92040       -1.05970
H          3.30700        3.89190       -1.26880
