15
qm7 6399 -1434.21
O          1.39530        0.93880        1.64580
N          2.54250        1.59700        1.18910
C          3.48700        0.73160        1.02540
N          4.75560        0.98520        0.58240
C          5.09180        2.25560       -0.01760
C          6.55920        2.23340       -0.32130
C          7.08410        2.32050       -1.55100
H          0.76060        1.67260        1.74000
H          3.33230       -0.34090        1.24230
H          5.25390        0.19000        0.19920
H          4.88170        3.07880        0.67420
H          4.50000        2.41190       -0.92670
H          7.22590        2.15760        0.53420
H          6.45970        2.41170       -2.43480
H          8.16040        2.30910       -1.69760
