17
qm7 2041 -1639.72
N          2.35810       -0.60910        1.15320
C          2.24860        0.10980       -0.11280
C          2.87960        1.48080       -0.01560
C          2.11410        2.58560       -0.10120
C          4.34230        1.49990        0.17730
C          5.23830        1.26530       -1.01330
N          5.12380        2.58800       -0.41640
H          1.87300       -1.50040        1.06720
H          1.85230       -0.08270        1.86510
H          1.19020        0.17880       -0.39060
H          2.74400       -0.46790       -0.90110
H          1.04060        2.53510       -0.24320
H          2.56090        3.57360       -0.03670
H          4.68090        1.14160        1.14470
H          4.79430        1.15410       -1.99480
H          6.17130        0.73810       -0.86070
H          5.92840        2.79790        0.17510
