9
qm7 50 -860.01
C          0.98980       -0.00210        0.00170
N          2.42700        0.04070        0.00380
C          3.14510        1.19730       -0.07030
O          4.35720        1.23880        0.08440
H          0.67020       -0.95580       -0.42410
H          0.58330        0.82750       -0.58280
H          0.64010        0.07570        1.03430
H          2.95980       -0.77830        0.27310
H          2.53790        2.08950       -0.29480
