15
qm7 5348 -1527.77
C          1.02050       -0.01680        0.62590
C          2.40170       -0.01210        0.06940
C          2.70350        0.77210       -1.17260
N          4.08670        1.18230       -1.45660
C          4.73490       -0.00890       -1.67630
N          4.06690       -1.12060       -1.56160
C          2.70520       -0.75770       -1.20330
H          0.85370        0.88220        1.22800
H          0.87650       -0.89000        1.27030
H          0.25850       -0.04550       -0.16070
H          3.14600       -0.03710        0.85670
H          1.92620        1.29350       -1.71380
H          4.29770        1.93500       -2.10060
H          5.78870        0.06330       -1.99040
H          1.90660       -1.33420       -1.64980
