15
qm7 5175 -1484.56
C          1.23880        0.31370       -1.46750
N          2.59400        0.12180       -0.96110
C          3.17830        1.18940       -0.55820
N          4.45950        1.17640       -0.05360
C          5.19750       -0.07210        0.01750
C          5.08670        2.34790        0.32340
O          6.24160        2.46360        0.71490
H          1.14600       -0.17330       -2.44330
H          0.95640        1.36500       -1.59370
H          0.52230       -0.15460       -0.78550
H          2.70940        2.18860       -0.58140
H          4.55730       -0.86300        0.42000
H          6.08660        0.02080        0.64690
H          5.50340       -0.35030       -0.99600
H          4.43460        3.23260        0.22940
