15
qm7 59 -1402.97
C          0.92710       -0.04920        0.03070
C          2.44420        0.03390        0.06570
C          2.98140        1.46670        0.02150
C          2.59920        2.29880        1.23800
O          4.40580        1.41450       -0.06050
H          0.60930       -1.09550       -0.02470
H          0.52530        0.47310       -0.84310
H          0.48080        0.38480        0.93010
H          2.85280       -0.52370       -0.78670
H          2.82040       -0.48030        0.95920
H          2.62760        1.96760       -0.88590
H          2.93110        1.81600        2.16400
H          1.51940        2.46230        1.29570
H          3.09240        3.27650        1.20030
H          4.73510        0.97550        0.74240
