15
qm7 2674 -1586.37
C          1.01310       -0.08250       -0.21730
C          2.40390        0.14510        0.27800
C          3.07160        1.30180        0.26490
O          4.37100        1.38480        0.75820
C          4.74980        2.77310        0.64530
C          3.58880        3.46400        0.03030
C          2.62100        2.57800       -0.18450
H          0.93460       -1.08570       -0.64880
H          0.72050        0.62880       -0.99490
H          0.30310       -0.01400        0.61290
H          2.90900       -0.72650        0.68540
H          5.64370        2.84700        0.01860
H          4.96820        3.16080        1.64510
H          3.54710        4.51700       -0.19500
H          1.65300        2.79070       -0.61220
