20
qm7 5960 -1920.23
C          1.03480       -0.06580        0.20320
C          2.53350        0.06120        0.02660
C          3.24890        1.14860        0.85590
C          4.30000        0.05340        1.16750
C          4.68600       -0.06280        2.63590
C          5.51460        0.02210        0.24170
N          3.27810       -0.95980        0.79710
H          0.65900       -0.96530       -0.29660
H          0.52440        0.79630       -0.23940
H          0.74670       -0.11870        1.25920
H          2.81290        0.08400       -1.03490
H          2.68250        1.50250        1.72620
H          3.60270        2.01760        0.29270
H          3.80670       -0.08300        3.28980
H          5.30340        0.78910        2.94090
H          5.26090       -0.97670        2.82350
H          5.23320        0.07210       -0.81560
H          6.09720       -0.89430        0.38730
H          6.17290        0.87330        0.44490
H          3.62080       -1.74500        0.24570
