14
qm7 6923 -1493.62
C          1.00000        0.00000        0.00000
C          2.19020        0.00000        0.00000
C          3.59620        0.00000        0.00000
C          4.35330       -1.09620       -0.06520
C          5.79180       -0.73300       -0.05760
N          5.83950        0.73900       -0.17380
C          4.45530        1.21470        0.05830
H         -0.06510       -0.00260        0.00120
H          3.98940       -2.11210       -0.10630
H          6.26550       -1.05060        0.87560
H          6.32160       -1.19600       -0.89560
H          6.08130        0.96390       -1.13890
H          4.17830        1.94790       -0.70690
H          4.39200        1.69190        1.04190
