14
qm7 832 -1350.25
C          1.96600        0.15680       -0.87390
O          3.28310        0.57120       -0.52830
C          3.45310        1.85800       -0.05690
C          2.48490        2.77910        0.08680
C          4.88990        2.16590        0.28870
O          5.70980        1.93950       -0.85290
H          2.01790       -0.88440       -1.20590
H          1.57240        0.75540       -1.70130
H          1.30050        0.20010       -0.00540
H          1.44690        2.59520       -0.15940
H          2.71750        3.77410        0.45630
H          5.23160        1.50690        1.09390
H          5.03260        3.20160        0.61110
H          5.33520        1.15190       -1.28850
