16
qm7 689 -1555.51
C          0.70510       -0.12840        0.12880
C          2.13030       -0.54670       -0.09910
C          2.45530       -1.83090       -0.32200
C          3.17900        0.55060       -0.10930
C          3.33480        1.27360        1.23060
O          3.84140        0.39970        2.23490
H          0.57390        0.25660        1.14550
H          0.00740       -0.96320        0.00130
H          0.41830        0.65360       -0.58160
H          1.70440       -2.61600       -0.33410
H          3.48200       -2.13550       -0.50580
H          2.91370        1.27900       -0.88380
H          4.15190        0.12820       -0.39060
H          2.39020        1.70100        1.58180
H          4.04950        2.09550        1.12350
H          3.26000       -0.38210        2.25070
