12
qm7 591 -1289.46
C          1.47940       -0.26190        0.05080
C          0.43880       -1.34160       -0.00980
C         -0.86410       -1.04490       -0.10450
O         -1.35850        0.24120       -0.15400
C         -0.45210        1.27900       -0.10410
C          0.87340        1.10970       -0.00940
H          2.05020       -0.36330        0.98040
H          2.17590       -0.38520       -0.78570
H          0.76430       -2.37530        0.02480
H         -1.66160       -1.77300       -0.15200
H         -0.95080        2.23680       -0.15120
H          1.53430        1.96860        0.02560
