16
qm7 7138 -1656.66
C          1.04980       -0.02600        0.42830
C          2.52000        0.00000        0.00000
C          2.72840       -0.62810       -1.39100
C          2.35180       -2.08470       -1.45480
C          1.39730       -2.57570       -2.25570
C          3.00200        1.36120        0.00000
N          3.38620        2.44620        0.00000
H          0.91530        0.46780        1.39830
H          0.67990       -1.05160        0.53050
H          0.41250        0.49440       -0.29660
H          3.09420       -0.57760        0.73610
H          3.78660       -0.54830       -1.67340
H          2.17140       -0.05630       -2.14610
H          2.90660       -2.76980       -0.81600
H          0.82120       -1.93920       -2.91980
H          1.17240       -3.63840       -2.26560
