14
qm7 3807 -1433.7
C         -1.29630        0.64880        0.04970
C         -1.02220       -0.79780       -0.14830
N         -0.30740       -1.59450        0.84350
C          0.44920       -1.10630       -0.30870
C          1.14090        0.26440       -0.28500
O          0.98890        1.04720        0.91030
C          0.03440        1.27290       -0.13380
H         -1.99540        1.01170       -0.71040
H         -1.71580        0.85830        1.03870
H         -1.74880       -1.31920       -0.75550
H         -0.05760       -1.03370        1.66350
H          0.74270       -1.83810       -1.05000
H          1.96620        0.47360       -0.94950
H          0.05300        2.21230       -0.66180
