17
qm7 2449 -1709.2
C          1.04110        0.07470        0.16390
C          2.53220       -0.07190       -0.11330
C          2.89760       -1.47620       -0.61780
O          3.04550       -1.38050       -2.04800
C          3.40680       -0.01670       -2.36350
C          2.30740        0.97990       -2.52740
C          3.01710        0.84410       -1.20080
H          0.78970        1.11400        0.40220
H          0.74690       -0.55000        1.01460
H          0.43050       -0.22970       -0.69250
H          3.07040        0.12780        0.82080
H          2.14970       -2.23640       -0.37410
H          3.86430       -1.79290       -0.21200
H          4.35380        0.16680       -2.85640
H          2.51310        1.86370       -3.12080
H          1.29930        0.60270       -2.64740
H          3.69790        1.61650       -0.87340
