15
qm7 3803 -1540.74
O          1.00050        0.12910        0.16670
C          2.32470       -0.00910       -0.07770
O          2.83190       -1.09400       -0.31310
C          3.05850        1.30960       -0.06780
C          4.55570        1.10380        0.14500
C          5.28630        2.41740        0.16420
C          5.92730        2.90290        1.23550
H          0.72000        1.05000        0.32600
H          2.66040        1.92990        0.74410
H          2.86430        1.81210       -1.02210
H          4.97280        0.48580       -0.65940
H          4.72390        0.55150        1.07830
H          5.30290        2.98770       -0.76330
H          5.95320        2.36660        2.17880
H          6.45070        3.85290        1.18620
