15
qm7 1720 -1628.79
C          1.00000        0.00000        0.00000
C          2.19020        0.00000        0.00000
C          3.59620        0.00000        0.00000
C          4.34600       -1.10460       -0.07330
C          5.80300       -0.78240       -0.05570
C          5.81940        0.72310       -0.32010
C          4.43660        1.23510        0.08090
H         -0.06490       -0.00190       -0.00020
H          3.96250       -2.11420       -0.12310
H          6.23580       -1.02560        0.92070
H          6.35170       -1.32360       -0.83270
H          5.98550        0.90840       -1.38920
H          6.62210        1.23040        0.22420
H          4.09710        2.02070       -0.60160
H          4.44030        1.62940        1.10340
