17
qm7 1801 -1648.91
C          0.55550       -0.14310        0.04810
N          1.98980       -0.23090        0.30050
C          2.44430       -1.56950        0.68130
C          2.87950        0.58340       -0.38390
N          2.64050        1.02460       -1.58200
C          4.18740        1.02250        0.18570
C          4.45650        1.01100        1.49680
H          0.24460        0.90050       -0.06890
H         -0.00980       -0.55390        0.89160
H          0.28250       -0.69850       -0.85520
H          1.66880       -2.11040        1.23500
H          3.32640       -1.52910        1.32630
H          2.69450       -2.15320       -0.21160
H          1.74610        0.65880       -1.90540
H          4.90120        1.41710       -0.52970
H          3.72900        0.67630        2.22780
H          5.41140        1.37180        1.86300
