19
qm7 3006 -1797.88
C          1.12320       -0.20740       -0.18480
C          2.64290       -0.14050       -0.29600
C          3.22020        1.29020       -0.32610
C          2.65660        2.12010       -1.48140
O          2.87950        1.92740        0.91560
C          4.76200        1.25010       -0.41230
O          5.31450        0.60360        0.73430
H          0.80300       -1.24940       -0.08210
H          0.63820        0.19770       -1.07750
H          0.76110        0.34210        0.68910
H          2.95560       -0.68840       -1.19400
H          3.04980       -0.68100        0.56820
H          2.82550        1.63220       -2.44720
H          3.12380        3.11170       -1.51250
H          1.58330        2.30110       -1.35860
H          3.11810        2.86910        0.84660
H          5.17420        2.26520       -0.42830
H          5.10470        0.72220       -1.30810
H          4.73160        0.84540        1.48120
