19
qm7 3205 -1849.44
C          1.43440        0.10650       -0.46570
C          2.94370        0.22310       -0.36800
O          3.28130        1.61010       -0.30950
C          4.62980        1.82830       -0.22660
C          5.16360        3.05660       -0.14450
C          4.33990        4.31290       -0.13120
C          6.64910        3.25880       -0.05940
H          1.12600       -0.94170       -0.51100
H          1.06520        0.62260       -1.35820
H          0.95430        0.57970        0.39730
H          3.40550       -0.23940       -1.24860
H          3.29430       -0.28650        0.53740
H          5.23940        0.93310       -0.23510
H          3.26450        4.11620       -0.17970
H          4.60010        4.94350       -0.98770
H          4.53030        4.87930        0.78640
H          7.19680        2.31030       -0.07220
H          6.90890        3.78100        0.86720
H          7.00000        3.85740       -0.90650
