15
qm7 5240 -1446.08
C          1.42260       -0.43090       -0.81710
N          2.81270       -0.19350       -0.44550
N          3.16840        1.10750       -0.33110
C          4.42210        1.27370       -0.05170
C          4.97720        2.65380        0.11800
C          5.60770        2.86930        1.46010
O          5.93210        1.96450        2.22320
H          1.24350       -1.50560       -0.91400
H          1.19420        0.03710       -1.77970
H          0.74080       -0.03360       -0.05890
H          3.01560       -0.71480        0.41240
H          5.12870        0.42900        0.05280
H          4.17900        3.39150       -0.00970
H          5.74100        2.82250       -0.64690
H          5.82840        3.92060        1.71250
