18
qm7 6976 -1768.04
C          1.42860       -0.04210        1.18150
C          2.23720        0.21140       -0.08050
C          3.32680        1.20890        0.16380
N          3.75740        2.09890       -0.91000
C          3.02740        2.68900        0.21220
C          3.79560        3.53160        1.12640
C          3.53680        3.71470        2.42830
H          0.67050       -0.80920        1.00010
H          0.92080        0.87000        1.50870
H          2.07190       -0.37950        1.99980
H          1.56190        0.54690       -0.87790
H          2.68770       -0.72950       -0.41830
H          4.11740        0.81600        0.79370
H          3.14960        2.02480       -1.72460
H          2.01990        3.02900       -0.00300
H          4.65140        4.05260        0.69870
H          2.70040        3.22280        2.91260
H          4.16620        4.36010        3.03210
