15
qm7 5227 -1421.17
C          1.46600        1.09160        0.64240
N          2.59200        0.77580        0.09270
N          3.41200        1.84280       -0.06940
C          4.81230        1.51870       -0.35620
C          5.58600        2.79430       -0.44430
C          6.73910        2.94140       -1.40090
O          5.44790        3.50290       -1.68430
H          0.71150        0.30980        0.82320
H          1.20670        2.11680        0.96170
H          3.08270        2.44000       -0.83580
H          4.88320        0.94410       -1.28730
H          5.22580        0.90600        0.45260
H          5.59290        3.36420        0.47550
H          7.05130        2.08430       -1.98410
H          7.53550        3.62790       -1.14240
