21
qm7 1419 -1934.1
C          0.91120       -0.06170       -0.01380
C          2.42390        0.03140        0.13590
C          2.96190        1.47560        0.14710
N          2.42460        2.23680        1.27810
C          4.50220        1.45940        0.20430
C          5.11760        2.85580        0.10260
N          6.57870        2.76370        0.09580
H          0.60950       -1.10940       -0.11680
H          0.56900        0.47810       -0.90240
H          0.39350        0.34410        0.86100
H          2.88170       -0.51220       -0.69980
H          2.72440       -0.49220        1.05150
H          2.65280        1.97570       -0.77920
H          2.59730        1.72950        2.14580
H          1.41160        2.31120        1.19410
H          4.87940        0.84400       -0.62430
H          4.83520        0.97350        1.13120
H          4.80780        3.48270        0.94480
H          4.79040        3.34630       -0.82020
H          6.89090        2.34500        0.97130
H          6.96710        3.70660        0.08230
