19
qm7 1694 -1796.21
C          2.15540       -0.24350       -1.58370
N          2.36260        0.12340       -0.18940
C          3.06850        1.39720       -0.04790
C          2.27440        2.61850       -0.48460
C          3.01000        3.76090        0.19950
N          3.62620        3.21220        1.41800
C          3.37240        1.76240        1.41000
H          1.66350       -1.22020       -1.63120
H          3.10410       -0.32010       -2.12490
H          1.50470        0.47070       -2.09690
H          2.89790       -0.61170        0.27250
H          4.01900        1.35810       -0.59920
H          1.24110        2.56590       -0.11750
H          2.24760        2.74170       -1.57160
H          3.79640        4.14730       -0.45950
H          2.33580        4.58870        0.43920
H          4.63120        3.38190        1.38620
H          4.22830        1.20410        1.80330
H          2.51140        1.55590        2.05760
