20
qm7 1733 -1911.6
C          3.34020       -0.61630       -1.04100
N          2.78570        0.21190        0.02120
C          3.07120        1.65510       -0.08550
C          2.40370        2.24760       -1.34310
C          2.40780        2.31690        1.14200
C          4.56620        1.90900        0.01710
C          5.35260        2.55080       -0.86090
H          3.05610       -1.65830       -0.86170
H          4.43390       -0.57980       -1.06940
H          2.94380       -0.34880       -2.02460
H          3.11480       -0.13290        0.92120
H          2.85300        1.87780       -2.27140
H          2.48520        3.34150       -1.35620
H          1.33440        2.00480       -1.37490
H          2.80860        1.92560        2.08560
H          1.32370        2.14830        1.15060
H          2.57100        3.40200        1.14410
H          5.04490        1.52220        0.91680
H          4.97450        2.97140       -1.78590
H          6.41470        2.66480       -0.66580
