18
qm7 5022 -1724.69
C          2.10680       -0.26930       -1.55830
N          2.35740        0.11030       -0.17410
C          3.07280        1.38170       -0.06840
C          2.27690        2.60000       -0.49530
C          3.04850        3.72290        0.16690
O          3.60780        3.19500        1.37850
C          3.42250        1.76960        1.36930
H          1.60810       -1.24440       -1.58170
H          3.03810       -0.35630       -2.12710
H          1.44380        0.44350       -2.05930
H          2.90580       -0.62370        0.27450
H          4.00670        1.33800       -0.64610
H          1.25930        2.56050       -0.08580
H          2.20310        2.72780       -1.57910
H          3.87880        4.05840       -0.46430
H          2.41710        4.58550        0.39820
H          4.33260        1.27830        1.72680
H          2.60780        1.53970        2.06600
