15
qm7 6943 -1475.49
C          1.44120       -0.51570       -0.70080
C          1.81270        0.73670       -0.40350
C          3.17320        1.27330       -0.49520
C          3.70240        1.69320       -1.83430
N          3.30660        2.69550       -0.84610
N          4.44120        3.14470       -0.26990
C          4.33820        4.38550        0.07060
H          0.40720       -0.82840       -0.59730
H          2.16000       -1.24930       -1.05110
H          1.04770        1.42640       -0.04980
H          3.87430        0.87340        0.23070
H          3.05910        1.61990       -2.70170
H          4.75780        1.55870       -2.03740
H          5.19040        4.88820        0.55440
H          3.43160        4.99470       -0.09390
