17
qm7 3398 -1698.18
C          2.64330       -0.87530        0.18790
O          3.98410       -0.40860        0.13970
C          4.04200        1.02050        0.09910
C          5.47010        1.52040       -0.03150
C          6.52900        0.69210       -0.10710
C          5.70660        2.96000       -0.08080
C          4.78010        3.92560       -0.01120
H          2.66070       -1.96670        0.25080
H          2.10590       -0.58730       -0.72080
H          2.12920       -0.48260        1.07070
H          3.60020        1.41010        1.02440
H          3.45520        1.37140       -0.75860
H          6.40250       -0.38640       -0.07550
H          7.54770        1.05360       -0.20190
H          6.74540        3.27450       -0.18470
H          3.72010        3.72750        0.09390
H          5.07930        4.96870       -0.05900
