17
qm7 3314 -1631
C          2.29570       -0.83760       -0.95360
O          1.88530        0.43020       -0.46040
C          2.99700        1.26640       -0.07850
C          3.40360        2.34780       -1.04870
C          2.74540        2.49410       -2.37840
C          2.64860        2.71010        0.20040
O          3.40630        3.37290        1.22640
H          1.40630       -1.39590       -1.25710
H          2.81360       -1.39810       -0.16970
H          2.94930       -0.71580       -1.82270
H          3.76580        0.82720        0.54910
H          4.45680        2.59330       -1.10540
H          1.66480        2.32180       -2.33390
H          3.17550        1.78360       -3.09170
H          2.90800        3.50480       -2.76700
H          1.60340        2.98720        0.10830
H          4.34620        3.12910        1.21430
