16
qm7 535 -1488.22
N          2.30400       -0.46540       -1.40390
C          2.42090        0.06700       -0.04420
C          3.20740        1.37590       -0.03910
C          2.48150        2.63760       -0.56160
C          3.15170        3.34380        0.62680
N          3.22930        2.02840        1.30210
H          1.74380       -1.31670       -1.37670
H          3.22540       -0.74730       -1.73600
H          2.92380       -0.67870        0.58350
H          1.41410        0.21410        0.36400
H          4.21700        1.25680       -0.45770
H          1.38750        2.60370       -0.49790
H          2.77530        2.98660       -1.55460
H          4.13110        3.77920        0.39630
H          2.54050        4.08960        1.14190
H          4.08430        1.87740        1.83480
