15
qm7 211 -1401.12
C          0.99810       -0.02660        0.01240
C          2.52450        0.01250       -0.02280
C          3.04950       -0.75930       -1.23560
C          3.02130        1.46100       -0.02620
O          4.44170        1.50930        0.04080
H          0.61690        0.48970        0.89970
H          0.63580       -1.05940        0.04590
H          0.56750        0.45520       -0.87170
H          2.90860       -0.48830        0.87570
H          2.71980       -0.29760       -2.17200
H          2.68820       -1.79330       -1.22260
H          4.14360       -0.79170       -1.23950
H          2.62460        2.01410        0.83140
H          2.70950        1.98300       -0.93640
H          4.71120        1.05300        0.85640
