12
qm7 115 -1120.22
O          3.16520       -1.00080       -0.54530
C          2.36600        0.02320        0.03320
C          3.17060        1.27820        0.09250
C          3.22960        2.19930       -1.09650
N          2.49780        2.57720        0.11140
H          2.60230       -1.79110       -0.59920
H          2.07770       -0.28820        1.04200
H          1.46050        0.14230       -0.57160
H          4.05420        1.17430        0.71050
H          2.62770        1.96570       -1.96580
H          4.15390        2.72660       -1.29520
H          3.03400        3.25220        0.66010
