12
qm7 6268 -1247.03
O          2.94130       -0.24390        2.17240
C          3.15020        0.95520        2.09610
C          3.91150        1.58000        0.94550
O          3.55910        2.67100        0.52220
N          5.01100        0.83130        0.54110
C          6.22050        1.48910        0.13120
C          5.37540        0.75790       -0.84520
H          2.80610        1.68820        2.84410
H          7.11530        1.01960        0.51310
H          6.19510        2.57120        0.14050
H          4.74810        1.31940       -1.52490
H          5.66960       -0.23280       -1.16000
