17
qm7 6743 -1659.1
C          0.92890        0.02910       -0.00620
C          2.45510       -0.04280       -0.02730
C          3.00640        0.14670       -1.43320
C          3.00360       -1.29530        0.65900
N          3.19130       -0.81290        2.02530
N          3.43200        0.52140        2.05660
C          3.00880        0.98220        0.92470
H          0.52980       -0.06170        1.01080
H          0.49090       -0.77200       -0.61150
H          0.57550        0.98730       -0.40460
H          4.10190        0.18460       -1.43270
H          2.65510        1.08810       -1.87090
H          2.69550       -0.67170       -2.09130
H          3.97060       -1.59810        0.24060
H          2.31920       -2.14780        0.61960
H          3.88610       -1.34750        2.54840
H          3.02320        2.05020        0.66260
