14
qm7 4065 -1375.25
C          0.99050       -0.01200        0.35920
C          2.41200       -0.06350       -0.17370
C          2.82080        1.24420       -0.81910
O          4.13560        1.12800       -1.37780
C          4.48220       -0.11050       -1.79980
N          3.77540       -1.19210       -1.73520
O          2.47560       -1.05350       -1.20110
H          0.87030        0.78320        1.10100
H          0.72510       -0.96700        0.82500
H          0.27150        0.14990       -0.45210
H          3.10360       -0.34650        0.63010
H          2.84060        2.05250       -0.08170
H          2.14370        1.53270       -1.63050
H          5.49970       -0.10480       -2.21600
