17
qm7 4589 -1621.02
C          1.43600       -0.88010        0.73580
C          2.22670       -1.02600       -0.55920
C          2.53980       -2.49170       -0.83460
O          1.39950       -0.49970       -1.61920
C          1.91790       -0.01660       -2.76310
N          0.96630        0.51840       -3.54860
N          3.14860       -0.06690       -3.11630
H          1.19240        0.17270        0.91580
H          2.00180       -1.25830        1.59250
H          0.48270       -1.41730        0.67840
H          3.14680       -0.43820       -0.46750
H          1.61840       -3.07340       -0.94990
H          3.13050       -2.92860       -0.02350
H          3.09920       -2.60760       -1.76810
H          0.04100        0.14200       -3.39750
H          1.25070        0.58780       -4.51680
H          3.72170       -0.51720       -2.40720
