17
qm7 3055 -1703.91
C          0.35650       -2.03410        0.08520
C          1.79450       -2.15360       -0.32960
C          2.44920       -3.32430       -0.24730
O          2.31690       -0.96130       -0.77670
C          3.67790       -0.93380       -1.20380
C          3.99260        0.47350       -1.61370
C          4.48080        0.83180       -2.80880
H         -0.24780       -1.67360       -0.75350
H          0.26030       -1.32250        0.91170
H         -0.06330       -2.99050        0.41390
H          1.94870       -4.21500        0.12160
H          3.48530       -3.44890       -0.53620
H          3.82400       -1.62520       -2.04200
H          4.33760       -1.21100       -0.37350
H          3.79790        1.24180       -0.86900
H          4.68440        0.10130       -3.58550
H          4.67930        1.87480       -3.03590
