16
qm7 609 -1548.92
C          0.87700        0.00940       -0.25080
C          2.35350        0.02510        0.04780
C          2.67920        0.00140        1.51850
C          3.27900       -0.70480       -0.89900
C          3.24580        0.79800       -0.90090
O          4.37350        1.47150       -0.32490
H          0.67500        0.02010       -1.32740
H          0.39090        0.88570        0.19080
H          0.41280       -0.88990        0.16750
H          3.75390       -0.09160        1.70820
H          2.18720       -0.84880        2.00340
H          2.32870        0.92070        1.99950
H          2.84860       -1.21640       -1.75340
H          4.14630       -1.21110       -0.49220
H          2.77550        1.28400       -1.75130
H          5.06280        0.85250       -0.03200
