17
qm7 3376 -1703.97
C          2.56950       -0.60380        0.95720
O          2.12230        0.70470        0.63080
C          3.05310        1.65580        0.26010
C          2.43320        2.92720       -0.08570
C          1.19220        3.30040        0.25640
C          4.38230        1.44590        0.18260
C          5.45900        2.42320       -0.17950
H          1.69150       -1.20530        1.21120
H          3.22840       -0.58630        1.83110
H          3.06190       -1.07630        0.10110
H          3.01730        3.62670       -0.67620
H          0.54450        2.66250        0.84990
H          0.80110        4.26580       -0.04670
H          4.78430        0.46710        0.42900
H          5.10710        3.44970       -0.29900
H          5.94110        2.11400       -1.11190
H          6.21890        2.43270        0.60870
