12
qm7 174 -1169.33
C          0.99240       -0.04100       -0.01330
C          2.52000        0.00000        0.00000
N          3.05210       -0.70440       -1.16320
C          3.00200        1.36120        0.00000
C          3.39930        2.48310        0.00000
H          0.58290        0.47090        0.86410
H          0.62740       -1.07320        0.00300
H          0.58110        0.45020       -0.90240
H          2.87410       -0.51450        0.90030
H          2.74530       -0.22570       -2.00870
H          2.65200       -1.63910       -1.20480
H          3.76350        3.48430       -0.00310
