17
qm7 4534 -1573.75
C          1.76270       -0.74210        1.80080
C          2.49530       -0.67490        0.46790
C          3.49260        0.48290        0.39950
N          4.56470        0.32390        1.37770
O          5.38700       -0.78130        1.12140
C          5.25420        1.40480        1.86660
N          6.46500        1.41460        2.30380
H          1.01250       -1.53850        1.77820
H          1.25030        0.20100        2.01510
H          2.45210       -0.95460        2.62360
H          1.75680       -0.54860       -0.33270
H          3.00210       -1.62980        0.28580
H          2.95830        1.42490        0.57300
H          3.92460        0.53850       -0.60680
H          5.30710       -1.29900        1.94570
H          4.65930        2.33430        1.88300
H          6.83220        0.46660        2.16200
