15
qm7 6369 -1524.76
C          0.99540       -0.04220        0.07620
C          2.50410        0.06210       -0.00370
C          3.18520        1.10360        0.90920
C          4.21100       -0.00690        1.22210
N          3.18400       -0.99680        0.78060
C          5.41350       -0.01820        0.39960
N          6.36120       -0.03640       -0.27180
H          0.63590       -0.91240       -0.48340
H          0.52870        0.84750       -0.35910
H          0.64240       -0.13330        1.10930
H          2.85270        0.11450       -1.04410
H          2.59220        1.40910        1.78040
H          3.55970        2.00200        0.40980
H          4.44660       -0.08850        2.28940
H          3.54340       -1.77250        0.22350
