22
qm7 1198 -2055.72
C          2.31650       -0.87610       -1.32430
C          2.01760       -0.04700       -0.07940
C          2.73730        1.32680       -0.00510
C          2.27840        2.22400       -1.17420
C          2.33560        2.03070        1.30750
N          4.20470        1.21800       -0.12390
C          4.87240        0.43870        0.90880
H          1.79710       -1.83830       -1.26160
H          3.38570       -1.08290       -1.42710
H          1.96940       -0.37660       -2.23340
H          2.26410       -0.64910        0.80390
H          0.93230        0.11290       -0.03310
H          2.60710        1.83430       -2.14390
H          2.68130        3.23980       -1.08030
H          1.18590        2.30620       -1.20230
H          2.55750        1.41600        2.18650
H          1.25960        2.24050        1.32440
H          2.85750        2.98760        1.42480
H          4.61330        2.15270       -0.14420
H          4.52330       -0.59670        0.93850
H          4.76430        0.88720        1.90020
H          5.94370        0.40280        0.68630
