22
qm7 1736 -2055.72
C          1.64420       -0.48390        0.47740
N          3.01560       -0.10220        0.78990
C          3.37080        1.24890        0.32310
C          2.51260        2.32830        0.99800
C          4.88630        1.54220        0.53880
C          5.33620        1.41480        1.99930
C          5.77600        0.66580       -0.35200
H          1.49410       -1.53380        0.74780
H          1.42740       -0.37990       -0.59010
H          0.92030        0.09710        1.05500
H          3.64350       -0.78120        0.36130
H          3.18310        1.30700       -0.75780
H          2.51470        2.23010        2.08890
H          1.47220        2.27790        0.65940
H          2.87900        3.33000        0.74770
H          5.06680        2.58190        0.23230
H          5.22070        0.39180        2.37100
H          4.76780        2.08270        2.65290
H          6.39300        1.68520        2.09880
H          5.74210       -0.38770       -0.05810
H          6.82000        0.99180       -0.28650
H          5.47170        0.74100       -1.40060
