12
qm7 4754 -1281.55
C          1.29010       -0.36740        0.49480
C          2.50570       -0.21360       -0.03400
N          3.22910        0.93340        0.13780
C          4.48150        1.14420       -0.40080
O          5.13590        0.37930       -1.09210
C          5.05540        2.50700       -0.06500
O          4.44290        3.28310        0.65380
H          0.73920       -1.29000        0.33920
H          0.81030        0.40470        1.08630
H          2.96770       -1.00160       -0.62780
H          2.84320        1.69730        0.68960
H          6.03530        2.71470       -0.52170
