16
qm7 548 -1600.59
C          0.89360        0.04690       -0.35040
C          1.92490        0.27620        0.47130
C          2.91740        1.32740        0.14310
C          2.43010        2.79400        0.28920
C          3.83850        3.13030        0.82100
C          3.94000        1.65580        1.26360
H          0.16500       -0.72390       -0.12160
H          0.74860        0.61770       -1.26300
H          2.04930       -0.31260        1.37550
H          3.41040        1.13670       -0.82070
H          1.63620        2.94930        1.02950
H          2.14960        3.29570       -0.64100
H          4.55310        3.40680        0.03680
H          3.88080        3.87280        1.62170
H          4.92820        1.20110        1.15320
H          3.58390        1.48500        2.28650
