19
qm7 1660 -1777.5
C          1.00620        0.01590        0.13630
N          2.45510        0.04040       -0.03140
C          3.07180        1.02110        0.89430
C          4.15500       -0.03900        1.21500
C          5.43360       -0.00610        0.38640
N          6.32680        1.05350        0.85800
C          3.08970       -1.05640        0.73880
H          0.58200       -0.83100       -0.41390
H          0.56780        0.92800       -0.28260
H          0.68370       -0.06480        1.18140
H          2.46910        1.30110        1.76830
H          3.42440        1.93770        0.41180
H          4.37860       -0.13230        2.28620
H          5.22440        0.14150       -0.67900
H          5.95590       -0.96370        0.48700
H          5.91140        1.95990        0.64410
H          7.19310        1.01670        0.32040
H          3.45910       -1.88540        0.12680
H          2.49160       -1.47400        1.55970
