14
qm7 4406 -1460.27
C          0.89640        0.29630        0.18430
C          2.37220        0.04200        0.05820
C          2.93860       -1.17320       -0.08960
C          2.26950       -2.50680       -0.11810
O          2.52380       -3.10240       -1.37870
C          3.22570        1.19240        0.08620
N          3.91190        2.12730        0.10830
H          0.59510        1.12680       -0.46450
H          0.64560        0.56150        1.21670
H          0.28490       -0.56160       -0.10490
H          4.02500       -1.23500       -0.18100
H          1.19030       -2.47210        0.04190
H          2.69830       -3.15040        0.65610
H          2.16180       -2.50940       -2.05890
