19
qm7 1659 -1781.22
C          1.10930       -0.01300        0.10680
N          2.56160        0.00270       -0.01570
C          3.15370        1.03490        0.88660
C          4.24680       -0.00670        1.27420
C          4.77200       -0.03090        2.68690
N          5.33090        0.03450        0.26800
C          3.17670       -1.05270        0.83860
H          0.70130       -0.87320       -0.43350
H          0.68760        0.88830       -0.35180
H          0.75280       -0.06320        1.14220
H          2.52050        1.34050        1.73050
H          3.49820        1.94140        0.37790
H          3.95350       -0.05300        3.41410
H          5.37800        0.85680        2.90070
H          5.39390       -0.91540        2.86450
H          4.94560        0.12620       -0.67700
H          5.89080       -0.81590        0.24290
H          3.54220       -1.92790        0.28990
H          2.55170       -1.41220        1.66810
