14
qm7 884 -1418.48
O          2.49770        1.67190        1.48590
C          2.19270        1.52560        0.30640
C          3.17390        1.37690       -0.83270
C          4.61020        1.33750       -0.40540
C          5.34420        0.02610       -0.28820
C          5.67910        0.97560       -1.40480
H          1.13070        1.51530        0.00550
H          3.01910        2.22890       -1.50310
H          2.90130        0.46760       -1.37990
H          4.84940        2.12050        0.30800
H          4.82560       -0.89190       -0.54020
H          6.05800       -0.08080        0.52170
H          6.62210        1.50830       -1.35090
H          5.38380        0.70080       -2.41090
