15
qm7 2215 -1581.59
C          0.25190        1.39310        0.77140
O          1.20410        0.46860        0.15010
C          0.40370       -0.31770       -0.76880
C         -0.62170        0.69040       -1.26620
C         -1.09590        0.99920        0.14680
C         -1.41490       -0.40400        0.61790
C         -0.47800       -1.19900        0.07690
H          0.55210        2.41090        0.50230
H          0.29080        1.27180        1.85860
H          0.99940       -0.82240       -1.53010
H         -0.16800        1.56010       -1.75460
H         -1.39290        0.26020       -1.91640
H         -1.90940        1.71770        0.24300
H         -2.18140       -0.68660        1.32290
H         -0.33700       -2.25410        0.24890
