19
qm7 3146 -1847.5
C          2.33470       -0.48040       -1.42720
C          2.48360        0.03460       -0.00350
O          3.18030       -0.93620        0.77290
C          3.26630        1.33900        0.02320
C          2.54200        2.60740       -0.50860
C          3.25750        3.39570        0.60680
C          3.33740        2.07140        1.39190
H          1.77710        0.22450       -2.05150
H          1.81350       -1.44340       -1.43330
H          3.31380       -0.64690       -1.89100
H          1.49250        0.16260        0.44470
H          4.04760       -1.08590        0.35870
H          4.26550        1.22310       -0.42390
H          1.45100        2.58750       -0.40020
H          2.79190        2.90280       -1.53090
H          4.23500        3.79230        0.30950
H          2.67530        4.19290        1.07510
H          4.25510        1.91640        1.96540
H          2.47520        1.89800        2.04680
