15
qm7 962 -1420.67
C          1.04030       -0.11030       -0.06820
C          2.51030        0.10910       -0.03590
O          3.19920       -0.31520       -1.21960
C          3.16940        1.09940       -0.96130
C          4.49380        1.70090       -0.62920
N          5.21220        1.96300       -1.86960
H          0.54560        0.55540        0.64560
H          0.80690       -1.14270        0.20970
H          0.61740        0.07930       -1.06030
H          2.95760       -0.11320        0.92320
H          2.55340        1.72590       -1.59320
H          5.08730        1.03420        0.00620
H          4.34630        2.63970       -0.08630
H          5.30710        1.08020       -2.37440
H          6.16020        2.26280       -1.64960
