13
qm7 6328 -1293.71
O          1.18630        0.10340       -0.47060
N          2.32550       -0.02450        0.32220
C          3.02890        1.16810        0.39990
N          4.27980        1.20440        0.02890
C          4.61360       -0.13400       -0.42640
C          4.55580       -1.31370        0.50220
C          3.32740       -0.94210       -0.27300
H          0.57100       -0.52270       -0.04850
H          2.45250        2.03880        0.74650
H          5.25720       -0.21950       -1.29110
H          5.08690       -2.21020        0.20620
H          4.58120       -1.12060        1.56750
H          2.99780       -1.54900       -1.10470
