12
qm7 6463 -1269.84
C          0.98960       -0.01710       -0.00810
C          2.47300        0.09230       -0.00090
C          3.20160        1.21660        0.00360
S          4.90980        0.87600        0.01180
C          4.60510       -0.86480        0.00910
O          5.46060       -1.73100        0.01300
N          3.24230       -1.04510        0.00210
H          0.51440        0.96930       -0.00490
H          0.64090       -0.56120        0.87560
H          0.64890       -0.55180       -0.90070
H          2.81160        2.22510        0.00250
H          2.86500       -1.98200       -0.00030
