18
qm7 1070 -1755.73
C          2.25110       -0.66230        1.43170
C          2.67490       -0.19170        0.04970
C          3.18410        1.22180        0.08440
C          4.46200        1.64060        0.00200
C          5.66330        0.74120       -0.09780
C          4.79020        3.11110        0.01920
H          1.85320       -1.68060        1.37850
H          1.47150       -0.01670        1.84970
H          3.09910       -0.66620        2.12440
H          1.81220       -0.23000       -0.62650
H          3.41180       -0.88510       -0.36600
H          2.39800        1.97250        0.17120
H          5.42410       -0.31790        0.02050
H          6.38610        0.99200        0.68580
H          6.15010        0.87050       -1.06970
H          3.89380        3.73680        0.08420
H          5.32410        3.39000       -0.89520
H          5.42460        3.34840        0.87940
