17
qm7 3774 -1636.06
O          0.52530        0.72960        0.54100
C          1.43880        1.30780       -0.38240
C          2.60090        1.95380        0.35850
O          3.47970        2.56110       -0.58750
C          4.59700        3.22030        0.03650
C          5.25000        4.28320       -0.80070
C          4.40290        4.67090        0.37600
H         -0.20850        0.36390        0.01760
H          0.91200        2.05210       -0.98820
H          1.80440        0.52810       -1.05900
H          3.14320        1.19860        0.94050
H          2.22500        2.70860        1.05950
H          5.25120        2.62900        0.67020
H          4.85450        4.46110       -1.79380
H          6.32310        4.40340       -0.71870
H          4.90060        5.05330        1.25890
H          3.43550        5.11680        0.17890
