12
qm7 41 -1096.09
C          0.96550       -0.09790       -0.00160
C          2.47990       -0.03310       -0.01160
O          2.87350        1.33620        0.02720
C          4.28790        1.47500        0.01940
H          0.61880       -1.13470       -0.03130
H          0.55080        0.43840       -0.86150
H          0.56470        0.38350        0.89730
H          2.86610       -0.50350       -0.92210
H          2.88060       -0.55820        0.86220
H          4.52990        2.54070        0.05000
H          4.71000        1.04680       -0.89500
H          4.72520        0.99200        0.89870
