16
qm7 4369 -1611.54
C          2.63720       -1.09380        0.95330
C          3.10580       -0.30050       -0.25680
C          3.18740        1.16770        0.04800
C          4.31910        1.87810       -0.02700
N          4.34530        3.21550        0.25430
C          5.45790        4.01010        0.19790
O          5.44210        5.20630        0.45700
H          2.56970       -2.15780        0.70470
H          1.64790       -0.76200        1.28670
H          3.33370       -0.98520        1.79150
H          2.40230       -0.44920       -1.08390
H          4.07600       -0.68860       -0.58830
H          2.25510        1.65110        0.33180
H          5.26090        1.41580       -0.31490
H          3.49440        3.69320        0.52810
H          6.37610        3.47880       -0.10270
