14
qm7 4044 -1449.37
C          0.91280        0.02110        0.04740
C          2.42630       -0.02020        0.00630
C          3.16690        0.96680        0.91700
O          4.01900       -0.09250        1.42160
C          3.11480       -1.09790        0.86940
C          3.83120       -2.12990        0.14570
N          4.37340       -2.96710       -0.44990
H          0.49050       -0.83370       -0.49050
H          0.54000        0.93430       -0.42760
H          0.53310       -0.00470        1.07420
H          2.79340        0.02030       -1.02810
H          2.58280        1.41820        1.72510
H          3.74050        1.73920        0.39790
H          2.48710       -1.50410        1.67270
