12
qm7 574 -1208.21
N          2.93110       -1.54880        0.70220
C          2.38480       -0.52590        0.14990
N          2.98370        0.67150       -0.06590
C          4.40750        0.84820        0.11560
C          4.76410        2.24550       -0.17090
C          5.05430        3.38730       -0.40630
H          2.25180       -2.31630        0.74780
H          1.33790       -0.55440       -0.19910
H          2.55640        1.29460       -0.73990
H          4.95630        0.18270       -0.56010
H          4.69260        0.59800        1.14340
H          5.31290        4.40090       -0.61050
