13
qm7 4950 -1365.99
C          2.58370        0.08050        0.68120
N          1.69230        0.42790       -0.44180
C          2.45080        1.50780       -0.69330
C          2.52090        2.77920       -1.12360
N          3.56450        3.32800       -0.36560
C          3.97030        2.42550        0.62860
C          3.30610        1.29060        0.32350
H          3.09760       -0.87020        0.51480
H          2.12180        0.08660        1.67170
H          1.69160       -0.29930       -1.14940
H          1.89100        3.40600       -1.74120
H          3.81440        4.30790       -0.37430
H          4.55150        2.75930        1.47620
