15
qm7 2367 -1559.6
C          1.03570       -0.02680        0.04790
C          2.55170        0.02890        0.04240
C          3.10830        1.18020        0.84870
C          4.47820        0.66870        1.22250
C          4.23890       -0.80850        1.32070
O          4.97720       -1.61110        1.86650
O          3.08440       -1.14120        0.66910
H          0.68600       -0.89670       -0.51830
H          0.60440        0.87580       -0.39490
H          0.64760       -0.14140        1.06600
H          2.91760        0.05460       -0.99120
H          2.51930        1.34150        1.76040
H          3.13520        2.12130        0.29230
H          5.21340        0.86050        0.43570
H          4.81460        1.07970        2.17680
