17
qm7 5663 -1586.91
N          1.91370       -0.07260       -1.31600
C          2.26870        0.15100        0.08930
C          3.49040        1.08040        0.20550
N          3.33860        2.34880       -0.56580
C          2.86460        3.02320        0.66260
C          3.60080        1.94160        1.49260
O          4.94210        2.27490        1.92420
H          1.15340       -0.75020       -1.36470
H          2.70410       -0.50400       -1.79620
H          2.48800       -0.80670        0.57370
H          1.39790        0.58080        0.59680
H          4.41160        0.54350       -0.05360
H          2.63460        2.25580       -1.30510
H          3.23250        4.04620        0.78390
H          1.77550        3.02430        0.78440
H          3.02660        1.56740        2.34670
H          5.35790        2.62480        1.11290
