17
qm7 2593 -1724.64
C          2.43060       -0.50890       -1.54220
C          2.42280        0.04040       -0.12480
C          3.30090        1.27980       -0.02670
C          2.74760        2.58930       -0.66630
C          3.05940        3.38660        0.62190
C          3.23770        2.02900        1.32590
O          3.29610        1.68680        2.48740
H          1.81670       -1.41220       -1.60290
H          3.44710       -0.76300       -1.85770
H          2.03240        0.22300       -2.25120
H          2.79570       -0.73100        0.55990
H          1.39240        0.26700        0.17520
H          4.34250        1.07340       -0.30730
H          1.67780        2.56130       -0.90590
H          3.28900        2.92770       -1.55520
H          3.98080        3.97420        0.58770
H          2.23670        3.99290        1.00510
