17
qm7 487 -1615.42
C          1.16020       -0.11940        0.54600
N          2.61240       -0.09410        0.43380
C          3.08060        1.21830       -0.02480
C          4.61250        1.23540       -0.12680
C          5.12260        2.57040       -0.59540
C          5.83520        2.75270       -1.71430
H          0.83850       -1.10930        0.88370
H          0.67880        0.08100       -0.41650
H          0.80800        0.61000        1.28230
H          2.91020       -0.80870       -0.23040
H          2.75560        1.99420        0.67980
H          2.64490        1.45080       -1.00490
H          4.94770        0.43880       -0.80300
H          5.05200        1.02400        0.85620
H          4.90100        3.42910        0.03510
H          6.09140        1.92620       -2.37030
H          6.18400        3.74150       -1.99580
