15
qm7 3397 -1542.07
C          2.13690       -0.82790       -0.19370
O          3.38990       -0.16060       -0.23940
C          3.25600        1.23170        0.02960
C          4.59360        1.90930        0.01250
C          5.77440        1.31420       -0.21340
C          6.98990        2.04640       -0.20650
C          8.02600        2.65540       -0.20290
H          2.30140       -1.88360       -0.42600
H          1.45080       -0.40960       -0.93640
H          1.70080       -0.75470        0.80720
H          2.79750        1.37370        1.01500
H          2.61330        1.69020       -0.73060
H          4.56910        2.97960        0.20510
H          5.82890        0.24660       -0.40820
H          8.94630        3.18960       -0.20070
