13
qm7 957 -1293.02
C          0.99760        0.03020        0.12230
C          2.49880       -0.02880       -0.06410
N          3.22510        0.97910        0.74500
C          4.17540       -0.00590        1.30140
C          3.24780       -1.09530        0.74780
O          3.15110       -2.29500        0.89250
H          0.51830       -0.82200       -0.37120
H          0.58620        0.94320       -0.32160
H          0.71060        0.00680        1.17960
H          2.79470       -0.02700       -1.11960
H          2.65070        1.42570        1.46240
H          5.16390        0.00810        0.83490
H          4.26600        0.00780        2.38930
