17
qm7 6853 -1778.88
C          1.42540        0.28500        0.65040
C          2.66960       -0.10300       -0.08370
C          3.40260        0.94480       -0.89690
C          4.02740        0.42070        0.36620
C          4.91560       -0.74880        0.31150
C          4.30600       -1.87190       -0.10440
C          2.85400       -1.58560       -0.40210
H          1.41340        1.35170        0.89710
H          1.33910       -0.27600        1.58590
H          0.54490        0.07030        0.03750
H          3.03270        1.96440       -0.88720
H          3.83040        0.65600       -1.85160
H          4.08200        1.05250        1.24310
H          5.96170       -0.69060        0.58210
H          4.77320       -2.83770       -0.21880
H          2.62300       -1.78730       -1.45290
H          2.21650       -2.21170        0.23090
