14
qm7 4762 -1422.61
C          1.13390       -0.91890       -0.17980
C          2.26860        0.05340        0.07710
N          1.77470        1.40440        0.21280
C          1.86990        2.34480       -0.78550
O          2.41660        2.20950       -1.86840
C          1.21920        3.67200       -0.44350
O          0.53340        3.79390        0.56280
H          1.51760       -1.93870       -0.27780
H          0.59420       -0.66300       -1.09870
H          0.41180       -0.90270        0.64470
H          2.99630        0.00450       -0.73830
H          2.77880       -0.20060        1.01020
H          1.24730        1.67240        1.04160
H          1.42870        4.48140       -1.16000
