20
qm7 6763 -1914.03
C          0.91570        0.02980       -0.02600
C          2.42940       -0.04040        0.02740
C          3.14250        0.95280        0.96770
N          4.10680       -0.10980        1.32550
C          3.12950       -1.14540        0.87970
C          2.37090       -1.72630        2.07290
C          3.80160       -2.23850        0.05270
H          0.51270       -0.82910       -0.57020
H          0.59400        0.93760       -0.54520
H          0.46850        0.04130        0.97190
H          2.83290        0.01960       -0.99540
H          2.54590        1.29980        1.81900
H          3.58530        1.82580        0.47890
H          4.95590       -0.07780        0.76000
H          1.93020       -0.94830        2.70630
H          3.03330       -2.32820        2.70560
H          1.55670       -2.37540        1.73260
H          4.39780       -1.82360       -0.76770
H          3.05040       -2.90140       -0.38940
H          4.46780       -2.85030        0.67060
