17
qm7 3263 -1659.61
C          0.90490        2.11120        1.26970
C          2.40700        2.31570        1.27620
O          2.94770        1.70000        0.10690
C          4.36330        1.78940        0.05400
C          4.88350        3.18170       -0.28250
C          4.35050        3.82000       -1.53760
O          5.70930        3.75390        0.43010
H          0.44240        2.58940        2.13760
H          0.66240        1.04340        1.28430
H          0.46210        2.52610        0.35820
H          2.83970        1.85960        2.17320
H          2.63280        3.38730        1.27220
H          4.71430        1.11230       -0.73200
H          4.80540        1.44810        0.99700
H          4.50270        3.14750       -2.38530
H          4.88700        4.75320       -1.73060
H          3.28740        4.04070       -1.41600
