15
qm7 6890 -1519.39
C          0.97590        0.07950        0.11040
C          2.47820        0.02770        0.01090
N          3.11960        1.15250        0.03190
N          4.50040        1.18200       -0.14990
C          5.17440        0.08110       -0.09810
C          4.59540       -1.26940        0.13940
C          3.12730       -1.30600       -0.19220
H          0.55770       -0.92680        0.19480
H          0.57360        0.55530       -0.78810
H          0.68620        0.66430        0.98670
H          6.27130        0.14330       -0.18780
H          5.14470       -2.00050       -0.46610
H          4.77320       -1.52460        1.19030
H          2.62380       -2.06150        0.42120
H          2.97790       -1.58590       -1.24340
