17
qm7 7075 -1779.66
C          1.06720       -0.12780       -0.04830
C          2.52170        0.17070        0.05940
C          3.11150        1.34730       -0.22610
C          4.60170        1.23800       -0.02640
C          4.83340       -0.19390        0.41250
C          4.52460       -1.36500       -0.48560
C          3.47820       -0.87320        0.47620
H          0.90850       -1.13310       -0.45580
H          0.56120        0.58110       -0.70830
H          0.59630       -0.07880        0.93980
H          2.60860        2.24300       -0.55850
H          5.13890        1.45330       -0.95430
H          4.92980        1.93550        0.75020
H          5.52730       -0.31260        1.23100
H          5.00490       -2.31120       -0.26640
H          4.38370       -1.18350       -1.54580
H          3.23790       -1.45620        1.35540
