18
qm7 1404 -1755.19
C          0.65280       -0.37540        0.40880
C          2.16670       -0.36960        0.26210
C          2.70610        1.05250        0.10280
N          4.16130        1.01420       -0.02380
C          4.71260        2.35610       -0.18490
C          6.16910        2.27080       -0.35110
C          7.36090        2.20020       -0.48690
H          0.28730       -1.40060        0.52400
H          0.17170        0.05990       -0.47280
H          0.34170        0.19690        1.28850
H          2.44290       -0.97790       -0.60780
H          2.61290       -0.84420        1.14460
H          2.42160        1.64850        0.97810
H          2.25810        1.51640       -0.78430
H          4.42370        0.45240       -0.83270
H          4.48380        2.96740        0.69560
H          4.27650        2.84950       -1.06130
H          8.41760        2.13110       -0.60090
