19
qm7 1705 -1776.73
C          2.96610       -1.01970       -0.59100
N          2.34320        0.15500        0.01860
C          1.73050       -0.20100        1.29820
C          3.30440        1.26470        0.16780
C          3.56770        2.17530       -1.00160
C          2.79790        2.69050        0.17510
N          3.40590        3.68770        1.05890
H          3.38050       -0.76870       -1.57390
H          2.22560       -1.81080       -0.75380
H          3.77610       -1.42310        0.02790
H          0.97370       -0.98170        1.16210
H          1.21650        0.66410        1.73220
H          2.47140       -0.55670        2.02360
H          4.16150        1.04330        0.80150
H          3.01830        2.00580       -1.92050
H          4.58090        2.52540       -1.15570
H          1.73070        2.83430        0.01740
H          4.40050        3.51180        1.19230
H          2.98360        3.63980        1.98580
