14
qm7 7153 -1507.18
C          1.00000        0.00000        0.00000
C          2.44400        0.00000        0.00000
C          3.63420        0.00000        0.00000
C          5.07810        0.00000        0.00000
C          5.63360        1.42130        0.00100
C          7.09940        1.40390        0.00100
N          8.26150        1.38570        0.00100
H          0.60600        1.02090        0.01170
H          0.60590       -0.52050        0.87830
H          0.60590       -0.50030       -0.88990
H          5.44950       -0.54340       -0.87800
H          5.44950       -0.54460        0.87720
H          5.27320        1.96760        0.88140
H          5.27320        1.96890       -0.87850
