10
qm7 158 -1067.19
C          0.92700       -0.01180        0.01050
C          2.41990        0.00550        0.01820
C          3.13900        1.13800        0.00000
C          4.54500        1.13800        0.00000
N          5.69610        1.13800        0.00000
H          0.56610       -1.04540       -0.04330
H          0.53160        0.52350       -0.85890
H          0.52690        0.43490        0.92580
H          2.92100       -0.96110        0.03640
H          2.64600        2.10400       -0.01780
