21
qm7 1429 -1927.34
C          0.88620        0.35570        1.44710
C          2.30460        0.10590        0.94870
C          2.95050        1.33060        0.26900
N          3.04720        2.46870        1.19640
C          4.36710        1.00190       -0.27780
N          4.34210       -0.04110       -1.31220
C          5.68760       -0.32440       -1.79410
H          0.44870       -0.57880        1.81310
H          0.24830        0.73630        0.64340
H          0.86980        1.07150        2.27420
H          2.26360       -0.72720        0.23680
H          2.92440       -0.23070        1.78930
H          2.32010        1.64400       -0.57260
H          3.52780        2.17140        2.04540
H          2.11280        2.75150        1.48820
H          5.00730        0.68000        0.55390
H          4.80600        1.91640       -0.69850
H          3.76990        0.28180       -2.09260
H          6.32900       -0.69120       -0.98590
H          6.14850        0.56090       -2.24400
H          5.64310       -1.10610       -2.55880
