16
qm7 4743 -1612.17
C          1.68720       -0.57500       -1.07580
C          2.92440       -0.51680       -0.19790
N          3.31080        0.84850        0.09160
C          4.09950        1.57040       -0.77050
O          4.56990        1.13130       -1.81220
C          4.32700        2.96410       -0.31040
C          5.06160        3.81010       -1.04410
H          1.40240       -1.61410       -1.26420
H          1.86290       -0.08700       -2.03970
H          0.84400       -0.06890       -0.59480
H          3.75730       -1.03330       -0.68730
H          2.73120       -1.00930        0.76060
H          2.91050        1.29400        0.90440
H          3.89110        3.28210        0.62700
H          5.50710        3.50240       -1.98690
H          5.23440        4.82900       -0.71590
