20
qm7 4685 -1870.48
C          1.60950       -0.93300       -0.01800
C          3.08220       -0.54750        0.12660
N          3.89060       -1.33380       -0.81450
C          3.27120        0.96270       -0.11420
C          4.71230        1.48180        0.02150
C          5.31140        1.26800        1.40390
O          5.56060        0.87180       -0.94700
H          0.99650       -0.39290        0.71150
H          1.46370       -2.00490        0.15600
H          1.22790       -0.69790       -1.01810
H          3.40150       -0.79720        1.14420
H          3.54260       -1.18020       -1.76420
H          3.73810       -2.32870       -0.63530
H          2.63220        1.51750        0.58530
H          2.91610        1.20310       -1.12550
H          4.71120        2.55620       -0.19300
H          5.47750        0.20670        1.61340
H          4.67250        1.69100        2.18520
H          6.29400        1.74890        1.46420
H          5.32930       -0.08460       -0.94140
