15
qm7 2690 -1548.8
C          1.00000        0.00000        0.00000
C          2.44400        0.00000        0.00000
C          3.63420        0.00000        0.00000
C          5.06800        0.00140        0.03920
C          5.82090       -0.72610       -1.04370
C          5.82620        0.77420       -1.01070
O          7.05980        1.38880       -0.60350
H          0.60600        1.02080        0.01160
H          0.60590       -0.52050        0.87820
H          0.60600       -0.50030       -0.89000
H          5.49600       -0.02730        1.03590
H          5.26040       -1.20690       -1.83740
H          6.72530       -1.25370       -0.76700
H          5.25430        1.28850       -1.77760
H          7.49210        0.91540        0.12680
