17
qm7 7163 -1782.01
C          0.95270       -0.03690       -0.12120
C          2.47140        0.01300        0.01010
C          3.12020       -1.22460       -0.55360
C          4.09860       -0.92240       -1.41750
C          4.25960        0.55560       -1.58200
C          3.12910        1.13910       -0.76890
C          2.74330        2.42140       -0.81640
H          0.48870        0.83670        0.35060
H          0.54750       -0.92840        0.37230
H          0.63430       -0.06140       -1.16990
H          2.74610        0.09290        1.06940
H          2.84050       -2.22750       -0.26720
H          4.71180       -1.64870       -1.93080
H          5.22990        0.87050       -1.18550
H          4.18120        0.83560       -2.63560
H          3.26380        3.14040       -1.44020
H          1.89880        2.78370       -0.23680
