16
qm7 1968 -1675.41
N          1.00000        0.00000        0.00000
C          2.15100        0.00000        0.00000
C          3.59500        0.00000        0.00000
C          4.17780        1.12560        0.85120
C          5.59450        0.64930        1.12570
C          5.43040       -0.83940        1.39390
C          4.18910       -1.27490        0.60960
H          3.96730        0.10390       -1.02750
H          3.62860        1.24250        1.79470
H          4.16090        2.09040        0.33310
H          6.22210        0.80480        0.24120
H          6.05540        1.17380        1.96650
H          6.32050       -1.40460        1.09950
H          5.26830       -1.01410        2.46400
H          4.45370       -1.99110       -0.17700
H          3.48830       -1.78620        1.28190
