17
qm7 2646 -1659.13
C          2.29230       -0.29440       -1.58440
C          2.46830        0.11680       -0.13200
C          3.17260        1.45750        0.02470
C          2.41560        2.64650       -0.52040
O          3.00370        3.74910        0.16880
C          3.39240        3.21030        1.43530
O          3.31110        1.78210        1.41230
H          1.83040       -1.28460       -1.64170
H          3.25740       -0.34000       -2.09720
H          1.64820        0.40750       -2.12080
H          3.04370       -0.65320        0.39830
H          1.49060        0.14590        0.36640
H          4.18340        1.41450       -0.40150
H          1.35120        2.61570       -0.26370
H          2.52380        2.77310       -1.60070
H          4.42030        3.51460        1.65440
H          2.72920        3.59420        2.21630
