14
qm7 696 -1429.87
C          1.03090        0.00370       -0.12580
C          2.53490       -0.02900       -0.02360
C          3.11740       -1.41500       -0.05030
C          3.22330        1.12390        0.08060
C          4.69260        1.25790        0.18300
O          5.21980        2.36060        0.28060
H          0.63370        1.02420       -0.10820
H          0.58220       -0.54160        0.71100
H          0.70470       -0.46320       -1.06110
H          2.69690       -2.01410        0.76400
H          4.20270       -1.43980        0.05880
H          2.87240       -1.90560       -0.99910
H          2.70800        2.08070        0.09380
H          5.28660        0.33460        0.16590
