14
qm7 4056 -1479.26
C          0.92040        0.06140        0.00950
C          2.39800       -0.02890       -0.00860
C          3.30440        1.01190        0.00010
O          4.57870        0.54320       -0.02920
C          4.49960       -0.80790       -0.05970
N          5.65800       -1.47190       -0.09330
C          3.18800       -1.21380       -0.04320
H          0.58440        1.10320        0.02550
H          0.51730       -0.43910        0.89560
H          0.49770       -0.41740       -0.87970
H          3.20780        2.08850        0.02210
H          5.69450       -2.45240        0.15780
H          6.50410       -0.95180        0.11430
H          2.83830       -2.23560       -0.06200
