15
qm7 2156 -1535.9
C          1.91590       -0.00020       -0.46330
C          0.87190        0.77760        0.27760
C          0.87180       -0.77790        0.27750
C         -0.60160       -0.97860       -0.11960
C         -1.01610       -0.00030       -1.29610
C         -0.60150        0.97850       -0.11950
O         -1.42950       -0.00010        0.72030
H          1.89500       -0.00020       -1.54720
H          2.92420       -0.00020       -0.06170
H          1.09060        1.26810        1.21700
H          1.09050       -1.26850        1.21690
H         -1.02130       -1.98540       -0.12160
H         -2.07360        0.00000       -1.57500
H         -0.38430       -0.00040       -2.18520
H         -1.02120        1.98520       -0.12150
