19
qm7 3048 -1848.06
C          1.38780        0.54730       -0.58360
C          2.38140        1.08710        0.38920
C          3.60370        1.51030        0.05420
O          4.47750        1.98190        0.99480
C          5.52090        2.80710        0.45760
C          5.89130        3.82210        1.53400
C          6.72580        1.94270        0.10080
H          1.12540       -0.48110       -0.31750
H          1.77120        0.54790       -1.60890
H          0.47630        1.15230       -0.56010
H          2.07720        1.13170        1.43210
H          3.98010        1.48260       -0.95980
H          5.17150        3.35810       -0.42610
H          6.21890        3.32130        2.45170
H          5.01880        4.42830        1.80130
H          6.68830        4.49000        1.19390
H          7.07030        1.37220        0.97040
H          7.55510        2.55320       -0.26940
H          6.46550        1.21130       -0.67130
