19
qm7 1626 -1778.39
C          0.93010       -0.35610       -0.04560
N          2.37000       -0.55550       -0.19660
C          2.82020       -0.52810       -1.58400
C          3.06690        0.64240       -0.65710
C          4.45140        0.92350       -0.15180
C          4.43410        1.36490        1.31320
N          5.77600        1.71920        1.77180
H          0.72560        0.14030        0.90850
H          0.42760       -1.32730       -0.02930
H          0.47230        0.24510       -0.84110
H          2.08280       -0.42300       -2.37050
H          3.64390       -1.19130       -1.82010
H          2.49090        1.54950       -0.80670
H          4.89020        1.71430       -0.77360
H          5.09410        0.04100       -0.26410
H          4.03820        0.56050        1.94490
H          3.77300        2.23000        1.43860
H          6.38400        0.90570        1.68680
H          5.73790        1.93660        2.76670
