17
qm7 2994 -1676.76
C          0.36810       -0.89210        1.15060
C          1.69730       -1.23400        0.47960
C          1.66540       -2.66170       -0.07000
C          2.01470       -0.21550       -0.62370
O          3.27420       -0.50290       -1.25390
C          4.36990       -0.01350       -0.62450
O          4.39380        0.63040        0.41160
H          0.39750        0.11490        1.57980
H          0.14950       -1.59460        1.96180
H         -0.46040       -0.93230        0.43540
H          2.48810       -1.19520        1.23890
H          0.90970       -2.76740       -0.85590
H          1.42970       -3.37780        0.72450
H          2.63550       -2.94440       -0.49150
H          2.00620        0.81090       -0.23620
H          1.25210       -0.25840       -1.41010
H          5.26550       -0.29300       -1.20050
