21
qm7 2785 -1992.09
C          3.63640       -1.39040        1.91790
C          2.97330       -0.94030        0.61520
C          1.45120       -1.02580        0.75560
C          3.37950        0.48890        0.21060
C          4.87370        0.64260       -0.07490
C          5.20800        2.04970       -0.55550
O          6.60200        2.15230       -0.81490
H          4.72090       -1.47770        1.80310
H          3.26460       -2.37430        2.22380
H          3.43380       -0.68510        2.73080
H          3.27670       -1.63170       -0.18130
H          1.08590       -0.35330        1.53930
H          1.13960       -2.04430        1.01060
H          0.95770       -0.75260       -0.18300
H          3.08540        1.19310        0.99950
H          2.81830        0.77390       -0.68890
H          5.19350       -0.08480       -0.83090
H          5.46480        0.42780        0.82240
H          4.93860        2.80110        0.19390
H          4.67490        2.28290       -1.48240
H          7.06870        1.96340        0.01700
