15
qm7 6991 -1537.08
C          0.92890        0.08860        0.02290
C          2.24350        0.14750       -0.21870
C          3.02420        1.40090       -0.10500
N          4.32510        1.35840       -0.26820
C          4.77220        2.76610       -0.08730
C          3.50910        3.62590       -0.15170
N          2.49040        2.64390        0.13240
H          0.40240       -0.85660       -0.06280
H          0.35160        0.95270        0.32970
H          2.80860       -0.73600       -0.49620
H          5.26570        2.85980        0.88700
H          5.48550        3.04770       -0.86760
H          3.36840        4.03730       -1.15690
H          3.51950        4.44090        0.57670
H          1.56700        2.81950       -0.24160
