14
qm7 860 -1430.36
O          1.02380       -0.02700        0.04270
C          2.45410       -0.00730       -0.00540
C          2.94940       -1.22940       -0.79050
C          3.24300       -0.66630       -2.14640
C          3.24360        0.67050       -2.14220
C          2.95160        1.22120       -0.78250
H          0.73240        0.81200        0.43700
H          2.81420       -0.01500        1.02840
H          2.19520       -2.02000       -0.84630
H          3.87210       -1.63260       -0.36060
H          3.44730       -1.28000       -3.01260
H          3.45030        1.28760       -3.00540
H          3.87510        1.61890       -0.34880
H          2.20020        2.01460       -0.83270
