17
qm7 4381 -1581.66
C          0.99720       -0.30870        0.08000
C          2.47990        0.01610       -0.06840
C          3.09450       -0.69870       -1.26690
C          2.69480        1.52250       -0.17790
N          2.17850        2.22420       -1.14610
N          3.46210        2.14370        0.78280
O          3.94750        3.38860        0.35990
H          0.56050        0.24340        0.91940
H          0.85250       -1.37830        0.26540
H          0.43040       -0.04450       -0.81940
H          2.99370       -0.33360        0.83570
H          2.59680       -0.42380       -2.20330
H          3.01830       -1.78510       -1.15160
H          4.15470       -0.44190       -1.37010
H          1.63500        1.62210       -1.77380
H          4.14410        1.58550        1.28980
H          3.30640        3.62930       -0.35020
