16
qm7 6243 -1579.04
O          1.36640       -0.28410       -0.55030
C          2.28010        0.06070        0.19580
C          2.94640        1.41490        0.13260
N          4.33110        1.23050       -0.31410
C          5.07310        2.49620       -0.33560
C          5.97390        2.83770        0.81590
C          6.56600        2.44550       -0.50720
H          2.67140       -0.62720        0.96540
H          2.90470        1.85560        1.13370
H          2.39010        2.05280       -0.56140
H          4.31710        0.82400       -1.25290
H          4.57180        3.32400       -0.83490
H          6.06230        2.13240        1.63510
H          6.04530        3.87700        1.11540
H          7.03120        3.21890       -1.10520
H          7.04810        1.47840       -0.57730
