20
qm7 1669 -1912.92
C          2.58910       -0.90310       -0.40550
N          2.22200        0.34050        0.25790
C          3.30940        1.32500        0.23720
C          3.44080        2.25110       -0.93970
C          3.00480        2.80280        0.39780
C          1.57630        3.26520        0.53260
C          3.99140        3.63470        1.17500
H          1.74150       -1.59480       -0.38350
H          3.43530       -1.38610        0.09390
H          2.84810       -0.72920       -1.45490
H          1.94610        0.14020        1.21900
H          4.23890        0.97390        0.68410
H          2.70680        2.17510       -1.73460
H          4.43980        2.47430       -1.29620
H          0.89410        2.71990       -0.12830
H          1.49580        4.32800        0.27970
H          1.23040        3.13170        1.56300
H          5.02010        3.28060        1.04590
H          3.75680        3.60170        2.24420
H          3.95380        4.67850        0.84560
