15
qm7 2744 -1576.39
C          2.89000       -1.13020        0.23700
C          2.26960        0.04690        0.09440
C          2.89350        1.35700       -0.01960
C          2.11380        2.44740       -0.13050
C          4.39650        1.50370        0.01420
C          4.95770        1.27980       -1.36910
O          5.68550        2.08760       -1.94290
H          2.30520       -2.04290        0.31720
H          3.96610       -1.24330        0.28870
H          1.17910        0.02980        0.06460
H          1.02930        2.38890       -0.14930
H          2.54220        3.44330       -0.21390
H          4.86780        0.80520        0.71180
H          4.68350        2.51090        0.33990
H          4.73180        0.30550       -1.83400
