12
qm7 296 -1225.47
C          1.04770        0.00080       -0.06930
C          2.53510        0.02160        0.00400
N          3.32390       -0.67120       -1.00620
C          3.35010        0.80170       -1.00330
C          4.51610        1.50920       -0.54400
N          5.43730        2.10980       -0.17660
H          0.63060        0.78410        0.57140
H          0.66460       -0.96320        0.28030
H          0.67920        0.16550       -1.08750
H          2.89840       -0.06680        1.02240
H          2.74020       -1.01680       -1.76930
H          2.82820        1.27070       -1.83020
