15
qm7 6347 -1524.08
C          0.95550       -0.03210        0.11770
C          2.46740        0.04690       -0.03300
C          3.16750        1.10460        0.85820
C          4.16140       -0.01270        1.21110
N          3.14790       -1.00120        0.78920
C          2.88430        0.03470       -1.43310
N          3.23270        0.01530       -2.53960
H          0.65300       -0.06220        1.17120
H          0.55030       -0.92880       -0.36610
H          0.47110        0.84110       -0.33440
H          2.57380        1.45040        1.71350
H          3.59580        1.97720        0.35610
H          5.06790       -0.01890        0.59460
H          4.44930       -0.07310        2.26400
H          3.52230       -1.78980        0.26030
