15
qm7 6321 -1445
O          1.27910       -0.01860       -0.28760
N          2.52290       -0.06890        0.35680
C          3.28410        1.16990        0.15700
C          4.33980        0.77820       -0.87490
C          4.62410       -0.69200       -0.58410
C          3.28080       -1.14400       -0.07450
N          2.95750       -2.39000       -0.06030
H          0.78700       -0.76230        0.10620
H          3.76000        1.45060        1.10320
H          2.66260        2.00460       -0.18210
H          3.92300        0.88000       -1.88470
H          5.23660        1.40150       -0.81550
H          4.92910       -1.24400       -1.47650
H          5.36900       -0.81510        0.20770
H          2.03030       -2.48630        0.35590
