13
qm7 1100 -1315.91
N          1.00400        0.29250        0.09190
C          2.28370        0.11250       -0.33200
O          2.65540       -0.89120       -0.92110
C          3.21990        1.20810        0.00600
C          3.93610        1.94210       -1.10330
C          2.89230        2.65240       -0.29380
H          0.71130        1.11180        0.60180
H          0.33430       -0.43900       -0.10220
H          3.81240        1.00430        0.89290
H          3.69860        1.67450       -2.12760
H          4.97630        2.20220       -0.94510
H          3.22430        3.40380        0.41360
H          1.95770        2.89030       -0.78920
