19
qm7 1236 -1782.84
C          1.47820       -0.04420       -1.21980
C          2.00830        0.37490        0.13900
C          2.93590        1.56990        0.00010
C          2.30380        2.95210        0.06640
C          2.28840        3.46650        1.49460
N          4.20400        1.32400       -0.17070
N          5.01500        2.39630       -0.28370
H          0.81490       -0.90840       -1.12020
H          2.29740       -0.31650       -1.89320
H          0.91610        0.76710       -1.69270
H          2.55850       -0.45410        0.59790
H          1.18080        0.63490        0.80730
H          1.27710        2.88620       -0.30970
H          2.83430        3.65070       -0.58740
H          1.75110        2.77950        2.15690
H          1.79580        4.44280        1.54240
H          3.30400        3.57810        1.88810
H          5.92150        2.09150       -0.64790
H          5.23100        2.77770        0.64050
