15
qm7 2194 -1584.63
C         -1.41030        0.64760        0.15220
C         -1.42420       -0.81880       -0.26760
C         -0.29040       -1.59620        0.33150
C          0.95760       -1.14120        0.49890
C          1.48280        0.11590        0.02500
C          0.83580        1.18800       -0.45660
O         -0.49470        1.44580       -0.59460
H         -2.40300        1.06990       -0.04350
H         -1.22830        0.77490        1.22790
H         -1.40450       -0.92370       -1.35810
H         -2.35780       -1.26700        0.09310
H         -0.52590       -2.60090        0.67440
H          1.68910       -1.79980        0.96520
H          2.57200        0.16120        0.02080
H          1.38940        2.03230       -0.85620
