20
qm7 4676 -1864.13
C          1.30520       -0.74480       -0.12560
C          2.81210       -0.67580       -0.37520
N          3.10070       -1.07580       -1.75390
C          3.34030        0.74250       -0.10220
C          4.84780        0.92720       -0.33060
C          5.72520        0.03990        0.54440
O          5.47010        0.28540        1.92210
H          1.07370       -0.48180        0.91210
H          0.92320       -1.75620       -0.30390
H          0.75610       -0.05630       -0.77790
H          3.29940       -1.38650        0.30050
H          2.60780       -0.45940       -2.39980
H          2.72660       -2.00970       -1.92070
H          3.09810        1.02160        0.93150
H          2.80980        1.46110       -0.74150
H          5.08550        1.97640       -0.11580
H          5.09560        0.75680       -1.38400
H          6.78350        0.24380        0.35160
H          5.55420       -1.02180        0.34650
H          5.69770        1.21520        2.09480
