12
qm7 6095 -1270.7
O          1.25230        0.21640        0.52840
C          2.28220       -0.06270       -0.06140
O          2.57970       -1.27800       -0.61780
C          3.89790       -1.24660       -1.20080
C          4.45970        0.11560       -0.96690
N          3.82180        1.29530       -1.54180
C          3.43080        0.85750       -0.19360
H          4.50360       -2.01480       -0.71050
H          3.81920       -1.47900       -2.26720
H          5.50290        0.16160       -0.69620
H          4.42620        2.11680       -1.48200
H          3.71700        1.46370        0.65290
