10
qm7 18 -1003.91
C          1.00010       -0.05480        0.00300
C          2.52000        0.00000        0.00000
C          3.00200        1.36120        0.00000
C          3.39930        2.48310        0.00000
H          0.65810       -1.09410        0.00210
H          0.58500        0.44110       -0.88060
H          0.58860        0.43840        0.88970
H          2.89580       -0.53280       -0.88080
H          2.89930       -0.53420        0.87840
H          3.75490        3.48770        0.00000
