14
qm7 6391 -1361.2
O          0.90700        0.45540       -0.44810
N          2.25940        0.45830       -0.81160
C          2.94520        0.99600        0.14990
C          4.45940        1.13250        0.04320
O          4.98410        0.42230       -1.06470
C          4.80770        2.57780       -0.13270
C          5.53200        3.29860        0.73490
H          0.48370        0.00510       -1.20480
H          2.47080        1.37850        1.07210
H          4.89660        0.71920        0.95810
H          4.21430        0.20320       -1.62510
H          4.45240        3.05480       -1.04360
H          5.93100        2.86510        1.64720
H          5.76060        4.33980        0.53450
