17
qm7 2485 -1720.47
C          0.92990       -0.02640       -0.08020
C          2.44110       -0.02010        0.15270
C          3.09390        1.24020       -0.44480
O          3.20520        1.13080       -1.86650
C          4.11240        0.09100       -2.24790
C          3.83130       -1.19770       -1.53060
C          3.05390       -1.26340       -0.43930
H          0.46620        0.85380        0.37730
H          0.46890       -0.91360        0.36850
H          0.68210       -0.02170       -1.14770
H          2.62060       -0.01600        1.23410
H          2.49460        2.12910       -0.22190
H          4.09170        1.40810       -0.01880
H          5.14020        0.41760       -2.05450
H          4.00310       -0.05570       -3.32690
H          4.28060       -2.09970       -1.93460
H          2.85530       -2.21880        0.03970
