19
qm7 4850 -1794.29
C         -1.48270        0.74630        0.13010
C         -1.47230       -0.75760       -0.13590
N         -0.31390       -1.47010        0.39910
C          0.88820       -1.24730       -0.41110
C          1.68750        0.03180       -0.07850
N          0.94350        1.19630        0.41110
C         -0.25020        1.49480       -0.37580
H         -2.37080        1.17270       -0.35290
H         -1.60970        0.92660        1.20630
H         -1.58370       -0.95250       -1.21030
H         -2.36650       -1.18620        0.33260
H         -0.13680       -1.17580        1.35780
H          1.55470       -2.10550       -0.26160
H          0.63520       -1.25580       -1.47840
H          2.42740       -0.21600        0.69290
H          2.26750        0.32560       -0.96290
H          0.68030        1.04300        1.38340
H         -0.44600        2.56780       -0.26700
H         -0.08800        1.32330       -1.44680
