14
qm7 4451 -1375.68
C          1.17490       -0.52330        0.20550
C          2.44580        0.26300       -0.05810
C          2.17680        1.74810        0.01710
C          2.25030        2.39020        1.38710
O          2.44900        1.71660        2.38700
N          1.86920        2.39520       -1.06950
O          1.62850        3.75110       -0.83260
H          1.37090       -1.59770        0.13990
H          0.39980       -0.27130       -0.52560
H          0.77390       -0.30840        1.20100
H          2.82720        0.02390       -1.05750
H          3.22550       -0.01050        0.66030
H          2.12310        3.48200        1.41450
H          1.40780        4.08490       -1.72450
