19
qm7 3452 -1783.7
C          2.06500       -0.83630        0.67430
O          1.95440        0.17930       -0.31180
C          2.70150        1.36980       -0.04010
C          2.40070        2.35010       -1.18270
C          2.25450        2.02350        1.27360
O          4.10720        1.12200        0.07890
C          4.72160        0.58220       -1.08220
H          1.58630       -1.73920        0.28330
H          1.53740       -0.55100        1.58950
H          3.11000       -1.07330        0.89520
H          2.58320        1.88930       -2.15980
H          3.02560        3.24710       -1.11570
H          1.34580        2.64650       -1.17870
H          2.55380        1.42160        2.13940
H          1.16690        2.14340        1.31190
H          2.72840        3.00300        1.40700
H          5.73630        0.27370       -0.81330
H          4.80130        1.33960       -1.86650
H          4.18490       -0.29580       -1.45290
