17
qm7 1209 -1638.51
C          3.34510       -1.54570       -0.94370
C          2.91750       -0.59010        0.13680
C          2.15690       -0.99180        1.16990
C          3.34960        0.84690       -0.02430
C          4.84950        0.94890        0.10670
N          5.57810        1.30430       -0.90500
N          6.89840        1.34500       -0.61460
H          3.02920       -1.17730       -1.92480
H          2.90810       -2.54050       -0.80710
H          4.43340       -1.66050       -0.94720
H          1.83330       -2.02330        1.26980
H          1.82830       -0.30000        1.94010
H          2.91050        1.48530        0.74970
H          3.02880        1.23130       -0.99870
H          5.28180        0.71600        1.09870
H          7.38570        1.85710       -1.35570
H          7.30000        0.40360       -0.65510
