17
qm7 2851 -1697.89
C          1.00070       -0.05370        0.00310
C          2.52000        0.00000        0.00000
C          3.00200        1.36120        0.00000
C          3.39930        2.48310        0.00000
C          3.88130        3.84430        0.00000
C          2.73580        4.85100       -0.02940
O          3.24040        6.18450        0.01340
H          0.65730       -1.09290        0.00300
H          0.58520        0.44200       -0.88100
H          0.58880        0.44070        0.88950
H          2.89560       -0.53280       -0.88080
H          2.89910       -0.53410        0.87850
H          4.53870        4.02200       -0.85940
H          4.50210        4.02920        0.88500
H          2.05600        4.71360        0.81900
H          2.14800        4.74560       -0.94750
H          3.66230        6.30830        0.88190
