20
qm7 5727 -1915.19
C          0.94120        0.01740       -0.02770
C          2.45670       -0.04620        0.03020
C          3.14840        1.00020        0.94550
C          4.20940       -0.07590        1.27130
C          3.13650       -1.14190        0.91930
C          2.39630       -1.77300        2.08030
N          3.74600       -2.14390        0.04230
H          0.54280       -0.83990       -0.57890
H          0.61630        0.92760       -0.54160
H          0.49280        0.01940        0.96990
H          2.85940        0.00670       -0.99420
H          2.55570        1.30860        1.81440
H          3.52410        1.89470        0.44150
H          5.08000       -0.02840        0.60450
H          4.56830       -0.07290        2.30530
H          1.97100       -1.01450        2.74660
H          3.06540       -2.39730        2.68320
H          1.57260       -2.40470        1.73000
H          4.28700       -1.76630       -0.73530
H          3.07430       -2.78920       -0.37230
