17
qm7 3195 -1692.21
C          0.95610       -0.09300        0.10460
C          2.47900       -0.01720        0.03940
O          2.87950       -0.74370       -1.13010
C          3.02740        1.43280        0.00000
C          2.51840        2.28460        1.16640
C          4.47140        1.43280        0.00000
C          5.66170        1.43280        0.00000
H          0.56730        0.29930        1.04890
H          0.62110       -1.13220        0.00660
H          0.50220        0.46240       -0.72290
H          2.89450       -0.55580        0.90060
H          2.70160       -0.18840       -1.90750
H          2.69090        1.90280       -0.93380
H          2.75070        1.81950        2.13090
H          1.43600        2.43350        1.10940
H          2.98100        3.27860        1.15890
H          6.72740        1.42460       -0.00160
