15
qm7 1437 -1503.72
C          2.36450       -1.06970        0.62960
C          2.18440        0.13730        0.08080
C          3.24180        1.20270        0.11340
N          2.96750        2.34410       -0.45750
N          4.45870        0.94110        0.73970
C          5.66700        1.52560        0.13600
C          5.12620        2.06430        1.41700
H          1.57940       -1.81780        0.58700
H          3.28720       -1.34510        1.13040
H          1.24980        0.37840       -0.41250
H          2.02740        2.33810       -0.85850
H          5.50820        2.08020       -0.77870
H          6.51360        0.85680        0.16640
H          5.59550        1.77340        2.34500
H          4.58700        3.00140        1.40950
