14
qm7 6064 -1422.32
O          1.34260        0.12960        0.83780
C          2.39920        0.06680        0.21460
C          3.12010       -1.25420       -0.09770
O          4.02360       -1.24470       -1.20100
C          4.89680       -0.11330       -1.12870
C          4.07330        1.17080       -1.19440
N          3.05870        1.21320       -0.16130
H          2.36080       -2.01340       -0.30540
H          3.66760       -1.55680        0.80210
H          5.48700       -0.16880       -0.20680
H          5.58600       -0.16270       -1.97770
H          4.70930        2.05450       -1.08430
H          3.54440        1.22990       -2.15180
H          2.53520        2.06610       -0.00540
