10
qm7 43 -956.51
O          1.02480        0.01130       -0.14230
C          2.44460       -0.03450        0.03580
C          3.19950       -0.74500       -1.04820
C          3.24920        0.75300       -0.95500
H          0.62000        0.68160        0.43500
H          2.82800       -0.12390        1.04720
H          2.62900       -1.18710       -1.85660
H          4.08160       -1.30550       -0.76500
H          4.17140        1.20930       -0.61340
H          2.72120        1.32280       -1.71020
