16
qm7 5440 -1558.76
C          3.04570       -1.24990        0.07330
O          3.93100       -0.35040        0.72960
N          4.01200        0.82470       -0.03310
C          4.81860        1.64760        0.55420
C          5.13380        2.99630        0.01580
C          4.47800        3.41070       -1.26190
C          5.98760        3.76360        0.70870
H          2.96800       -2.15910        0.67500
H          3.43680       -1.51230       -0.91440
H          2.05110       -0.80310       -0.02060
H          5.31720        1.37420        1.50230
H          4.75030        2.72810       -2.07360
H          4.77860        4.41990       -1.56310
H          3.38840        3.40850       -1.15380
H          6.44750        3.43280        1.63500
H          6.25280        4.75770        0.36110
