16
qm7 163 -1474.9
C          0.99040        0.00400       -0.00510
C          2.52290       -0.00980        0.01070
C          3.02960       -0.70600        1.27860
C          3.05670       -0.72790       -1.23450
N          3.00220        1.37690        0.01590
H          0.60290        0.50670       -0.89890
H          0.58570        0.52360        0.87120
H          0.58910       -1.01560        0.00060
H          2.67140       -0.20070        2.18300
H          4.12480       -0.72140        1.31710
H          2.68270       -1.74440        1.32070
H          2.71460       -0.24100       -2.15490
H          2.71440       -1.76820       -1.26360
H          4.15240       -0.73940       -1.25090
H          2.69930        1.85140       -0.83440
H          4.02180        1.39100       -0.00070
