17
qm7 361 -1623.4
C          2.27930       -0.41090       -1.36960
C          2.41720        0.15400        0.03670
C          2.90340        1.58710        0.03410
C          2.03270        2.61040        0.05790
C          4.39260        1.81600        0.00030
N          5.02890        1.27430        1.19350
H          1.96140       -1.45790       -1.32410
H          3.22660       -0.36880       -1.91720
H          1.52730        0.14190       -1.94360
H          3.09450       -0.47980        0.61950
H          1.44490        0.08930        0.53950
H          0.96070        2.43820        0.07300
H          2.36420        3.64410        0.05180
H          4.62490        2.88540       -0.06730
H          4.81940        1.34130       -0.88970
H          4.65270        1.75620        2.00830
H          6.02260        1.49200        1.16760
