14
qm7 5151 -1412.14
C          1.00310        0.00470       -0.04740
N          2.43550        0.18260        0.09340
C          3.29770       -0.98880        0.01940
C          3.56840       -1.44110       -1.40700
O          2.80820       -1.27330       -2.35750
C          3.00860        1.43390        0.00620
O          4.21240        1.65470       -0.03860
H          0.48030        0.95810        0.07200
H          0.65550       -0.69230        0.72030
H          0.77690       -0.39610       -1.03840
H          2.85170       -1.81550        0.58060
H          4.26680       -0.75270        0.47240
H          4.48670       -2.04050       -1.53160
H          2.26920        2.25160        0.00590
