15
qm7 3462 -1481.5
C          2.59420       -1.01760        0.25670
O          2.37770        0.27170        0.82030
C          2.89400        1.33860        0.00000
C          2.33340        2.65080        0.58320
O          2.60570        2.76750        1.98430
C          4.33800        1.33860        0.00000
C          5.52830        1.33860        0.00000
H          2.04920       -1.74770        0.86090
H          3.65620       -1.27890        0.28500
H          2.21850       -1.06490       -0.76930
H          2.50760        1.22820       -1.02050
H          1.24350        2.66450        0.47730
H          2.74300        3.53040        0.07660
H          2.51650        1.86020        2.33820
H          6.59410        1.34350        0.01160
