15
qm7 3603 -1497.78
O          0.92830        0.04840       -0.46330
C          2.30140       -0.01580       -0.02630
C          3.20380       -0.86180       -0.88470
O          2.56340       -1.48570       -2.01440
C          3.30810        0.64190       -0.93540
C          4.47050        1.30530       -0.33480
C          5.73150        1.21990       -0.77820
H          0.50360        0.86160       -0.13700
H          2.48930       -0.03450        1.04250
H          3.99260       -1.41840       -0.39050
H          1.60550       -1.29450       -1.98000
H          2.93140        1.13020       -1.82890
H          4.27800        1.93400        0.53290
H          5.98230        0.61720       -1.64600
H          6.53690        1.75180       -0.28240
