17
qm7 3500 -1712.62
O          1.01710       -0.02810        0.06340
C          2.45600       -0.01180       -0.00860
C          3.11830        1.02080       -0.97930
C          2.69000        0.02500       -2.10050
C          3.13370       -1.00130       -1.01260
C          4.63170       -0.74780       -0.84810
C          4.62040        0.78540       -0.82290
H          0.78320        0.77930        0.55170
H          2.86950       -0.02850        1.00610
H          2.73370        2.03940       -1.01140
H          3.27410        0.04460       -3.02610
H          1.62670        0.02140       -2.36700
H          2.76480       -2.02370       -1.07870
H          5.02320       -1.16950        0.08310
H          5.21290       -1.13900       -1.68910
H          5.19470        1.21210       -1.65090
H          5.00570        1.18210        0.12100
