14
qm7 926 -1458.99
C          0.90460        0.05220       -0.01020
C          2.40770        0.00760       -0.00580
C          3.01750       -1.36950       -0.00900
C          3.13900        1.13800        0.00000
C          4.54500        1.13800        0.00000
C          5.73520        1.13800        0.00000
H          0.52000        1.07710       -0.00890
H          0.50900       -0.45360        0.87630
H          0.51440       -0.44940       -0.90160
H          2.24560       -2.14510        0.02700
H          3.66140       -1.51330        0.86430
H          3.60150       -1.53240       -0.92000
H          2.64650        2.10650        0.00230
H          6.79990        1.13620       -0.00000
