18
qm7 4889 -1721.82
C          3.15520       -1.07170       -0.95140
C          2.58980       -0.10040        0.07740
O          2.72210       -0.67570        1.38570
C          3.22770        1.32380        0.03640
N          2.57380        2.17300        1.04570
C          4.73260        1.31260        0.22140
C          5.44210        1.89450        1.20020
H          3.07770       -0.66520       -1.96370
H          2.60270       -2.01710       -0.91510
H          4.19940       -1.32200       -0.74380
H          1.51290       -0.00390       -0.10740
H          3.66660       -0.62730        1.62220
H          3.03100        1.76470       -0.94840
H          2.52070        1.62350        1.90750
H          1.59910        2.30380        0.77610
H          5.29280        0.79140       -0.55310
H          4.96590        2.46360        1.99340
H          6.52530        1.83480        1.21570
