15
qm7 2190 -1571.29
C         -1.02760       -0.04520        1.13190
C         -0.61440        1.00650        0.06800
C          0.90080        1.28590       -0.00700
C          1.64180       -0.03600       -0.01980
C          0.93710       -1.18150       -0.00550
C         -0.54660       -1.01310        0.01370
O         -1.00280        0.00940       -0.96240
H         -0.47020       -0.04150        2.07190
H         -2.10160       -0.08780        1.33940
H         -1.24520        1.89940        0.02970
H          1.13690        1.85010       -0.91520
H          1.21720        1.87700        0.85870
H          2.72590       -0.03720       -0.05200
H          1.38940       -2.16440       -0.02600
H         -1.10710       -1.94750       -0.07630
