12
qm7 732 -1283.65
C          2.21470       -1.41060        0.47440
C          3.43000       -0.86020        0.36490
C          3.58460        0.61730        0.28360
O          2.63070        1.38500        0.31190
C          4.99220        1.08340        0.16530
C          5.26820        2.39120        0.08790
H          2.09110       -2.48640        0.53470
H          1.31560       -0.79960        0.50640
H          4.31860       -1.48060        0.33430
H          5.78500        0.34730        0.14350
H          4.48000        3.14050        0.10900
H          6.29090        2.74200        0.00160
