13
qm7 2147 -1346.69
N          1.06750       -0.00160       -0.23330
N          2.41640       -0.01380       -0.09020
C          2.95990        1.15450       -0.07890
C          4.39040        1.10060        0.00000
C          5.58070        1.10060        0.00000
C          6.98670        1.10060        0.00000
C          7.69110        2.23700        0.00030
H          0.68120       -0.90300        0.05160
H          0.59410        0.72030        0.31100
H          2.44510        2.12630       -0.13780
H          7.49950        0.14290       -0.00110
H          7.21000        3.21030        0.00040
H          8.77590        2.21350       -0.00050
