14
qm7 6079 -1491.64
O          0.91010        0.01330        0.16850
C          2.13240        0.03330        0.09970
N          2.85520        1.18350        0.25870
C          4.22650        1.29910       -0.18670
C          5.05170        0.04420        0.09780
C          4.25330       -1.20760       -0.11530
C          2.91190       -1.20640       -0.13520
H          2.28570        2.01700        0.33550
H          4.67100        2.17290        0.30050
H          4.19660        1.49520       -1.26500
H          5.40980        0.05370        1.13390
H          5.93530        0.03990       -0.55040
H          4.79330       -2.14140       -0.23930
H          2.33250       -2.11150       -0.27300
