14
qm7 5212 -1430.2
C          1.06420       -0.04570       -0.74210
N          2.50000       -0.08320       -0.74240
C          3.24070        0.34080        0.33710
O          2.79320        0.77060        1.38800
C          4.75210        0.23270        0.11840
C          5.62360        0.67520        1.25450
O          5.17610       -0.19050       -0.95270
H          0.70030       -0.46350       -1.68330
H          0.73230        0.99060       -0.63790
H          0.68710       -0.63180        0.10020
H          3.01470       -0.39910       -1.56080
H          5.38280        0.10150        2.15300
H          5.48120        1.74350        1.43470
H          6.67190        0.49710        0.99920
