13
qm7 6614 -1362.48
C          3.02100       -1.15120        0.51800
O          2.28750        0.04230        0.28040
C          3.04640        1.15930        0.14880
C          2.42080        2.36280       -0.08330
S          3.53000        3.65750       -0.22140
C          4.86020        2.61130        0.02940
C          4.46440        1.30310        0.21430
H          2.30440       -1.97360        0.60510
H          3.57790       -1.09270        1.45940
H          3.68940       -1.37830       -0.31950
H          1.35940        2.54390       -0.17860
H          5.86750        3.00540        0.02920
H          5.17360        0.50460        0.38660
