18
qm7 6575 -1794.17
C          0.99500        0.02650        0.12690
C          2.33390        0.00750        0.03910
C          3.13730       -1.26960       -0.01890
C          4.13300       -1.23970       -1.18990
N          4.99430       -0.04450       -1.17960
C          4.16580        1.17260       -1.22260
C          3.17090        1.26100       -0.05380
H          0.44100        0.96000        0.15190
H          0.41660       -0.89090        0.17720
H          2.48660       -2.14580       -0.12060
H          3.68520       -1.38330        0.92500
H          4.77170       -2.12890       -1.14160
H          3.59600       -1.29350       -2.14540
H          5.52730       -0.04020       -0.30960
H          4.82820        2.04500       -1.19730
H          3.63060        1.21540       -2.17940
H          3.72140        1.38630        0.88730
H          2.54340        2.15100       -0.18010
