16
qm7 4737 -1560.92
C          0.98260       -0.06050       -0.00800
C          2.51450       -0.04380       -0.05640
N          2.95870       -0.81100       -1.23460
C          3.05890        1.41800       -0.02360
O          2.54710        2.10730        1.11900
C          4.53160        1.46600        0.02560
C          5.73150        1.51230        0.07030
H          0.61100        0.41240        0.90700
H          0.59970       -1.08740       -0.01860
H          0.55070        0.47050       -0.86370
H          2.87580       -0.56880        0.83740
H          2.61660       -0.36480       -2.08530
H          2.54200       -1.74120       -1.21460
H          2.70410        1.95950       -0.90820
H          3.05350        1.78610        1.88480
H          6.79570        1.54980        0.10230
