13
qm7 968 -1324.45
C          0.91510        0.00140       -0.09600
C          2.40320        0.06400       -0.19210
C          3.15130        1.03070        0.36120
C          4.62520        1.01030        0.21310
N          5.25150        2.05050        0.82440
O          5.24220        0.15030       -0.39630
H          0.61170       -0.93090        0.38990
H          0.47540        0.02650       -1.09770
H          0.50230        0.83630        0.47900
H          2.88510       -0.73710       -0.75160
H          2.70320        1.83990        0.92280
H          4.77430        2.77740        1.33520
H          6.25960        2.08650        0.75510
