16
qm7 3982 -1576.85
C          0.94390        0.05420       -0.01870
C          2.45780        0.02130        0.01540
C          3.15390        1.00130        0.97990
N          4.12370       -0.06490        1.31520
C          3.11620       -1.08240        0.88120
C          3.77080       -2.29190        0.14910
O          4.60350       -2.24070       -0.75770
H          0.55420       -0.79450       -0.58960
H          0.58980        0.97280       -0.49760
H          0.51420        0.01050        0.98750
H          2.87290        0.07340       -1.00150
H          2.54960        1.31830        1.83810
H          3.59240        1.88960        0.51560
H          4.94560       -0.06140        0.70220
H          2.48760       -1.41650        1.71820
H          3.43050       -3.27680        0.51430
