18
qm7 4957 -1708.01
C          1.24340       -0.02920       -0.15260
N          2.69970        0.02660       -0.12990
C          3.33650       -0.54730       -1.30570
C          3.33960        0.95860       -1.07970
C          2.52420        1.82430       -2.00740
C          4.61900        1.61010       -0.59670
O          5.55530        1.68410       -1.66760
H          0.82240        0.89830        0.24940
H          0.91090       -0.84480        0.49830
H          0.80250       -0.21080       -1.13890
H          2.71510       -0.96100       -2.09110
H          4.24610       -1.10640       -1.11670
H          1.74380        1.26790       -2.53620
H          3.16430        2.27280       -2.77520
H          2.04910        2.63750       -1.44850
H          5.08440        1.05630        0.22670
H          4.42020        2.62730       -0.24400
H          5.79710        0.76900       -1.88520
