18
qm7 5402 -1658.1
C          1.56620        0.09300        0.79310
O          2.81110        0.22070        0.11670
C          3.35700        1.54150        0.27480
C          4.70540        1.57490       -0.45260
O          4.49720        1.29760       -1.84970
C          5.43250        2.92040       -0.30900
N          4.67470        4.02980       -0.89950
H          1.18930       -0.92020        0.63090
H          0.83760        0.80550        0.39480
H          1.69860        0.24870        1.86800
H          3.48900        1.76020        1.34010
H          2.65510        2.25630       -0.16900
H          5.34730        0.77220       -0.07140
H          3.87760        0.54110       -1.85950
H          6.39560        2.85810       -0.82880
H          5.62990        3.13780        0.74550
H          4.40620        3.73390       -1.84380
H          5.29760        4.82640       -1.02740
