14
qm7 6517 -1444.4
C          0.94280       -0.15590        0.00930
C          2.45230        0.03120        0.00770
C          2.84630        1.47320       -0.00140
C          3.07530        2.25720        1.11610
S          3.50010        3.83870        0.62040
N          3.39860        3.53890       -1.00660
C          3.04930        2.26700       -1.17680
H          0.69230       -1.22140        0.01540
H          0.48670        0.29590       -0.87830
H          0.48750        0.30580        0.89220
H          2.87850       -0.47090       -0.86910
H          2.87940       -0.46220        0.88920
H          3.01500        1.99070        2.16130
H          2.94210        1.92170       -2.19770
