19
qm7 2621 -1908.23
C          0.80630        0.57190       -0.97170
C          2.29310        0.70050       -0.89800
C          2.93760        1.45190        0.00900
C          4.43370        1.58700        0.07830
C          4.88390        3.02000       -0.09310
C          4.64760        3.64520       -1.44100
C          5.49660        3.69520        0.89420
H          0.51460       -0.47230       -0.82420
H          0.45470        0.89180       -1.95690
H          0.30000        1.17960       -0.21510
H          2.86020        0.14380       -1.64090
H          2.37100        2.00540        0.75390
H          4.92320        0.96730       -0.68310
H          4.76240        1.19350        1.04840
H          5.10320        3.03580       -2.22810
H          5.07980        4.64940       -1.50820
H          3.57570        3.73390       -1.64420
H          5.68120        3.24180        1.86400
H          5.82990        4.71960        0.76070
