19
qm7 3079 -1852.22
C          0.98370       -0.12640       -0.28880
C          2.46230       -0.11220        0.07700
C          3.06920        1.29400       -0.00320
O          2.38110        2.16340        0.88820
C          4.54410        1.26640        0.31330
C          5.18540        1.99260        1.24410
C          6.65650        1.91860        1.49510
H          0.59620       -1.14990       -0.25240
H          0.82650        0.26010       -1.30100
H          0.39440        0.47930        0.40720
H          3.00000       -0.79360       -0.59330
H          2.56420       -0.50800        1.09540
H          2.94100        1.69340       -1.01550
H          2.48170        1.78850        1.77910
H          5.12900        0.58900       -0.30840
H          4.63550        2.70210        1.85920
H          7.15710        1.21430        0.82340
H          6.84280        1.59950        2.52510
H          7.10840        2.90500        1.35330
