13
qm7 2428 -1421.58
C          1.00890        0.03550        0.02840
C          2.49140       -0.02580        0.01120
C          3.25820       -1.10970       -0.08370
C          4.64510       -0.64760       -0.05740
O          5.61990       -1.37230       -0.12460
O          4.66310        0.70870        0.05320
C          3.32140        1.19360        0.10380
H          0.56430       -0.96200       -0.05010
H          0.64170        0.63500       -0.81040
H          0.65630        0.48910        0.95990
H          2.97920       -2.14450       -0.16580
H          3.15510        1.87250       -0.73770
H          3.16980        1.72690        1.04690
