17
qm7 1306 -1661.41
C          0.62460        0.64880        1.09590
C          2.10780        0.80240        1.21030
C          2.89050        1.24660        0.21440
C          4.37700        1.40110        0.30320
N          4.67500        2.79800        0.09950
C          5.91250        3.24210       -0.22560
N          6.29240        4.46710       -0.18770
H          0.34440       -0.39750        1.25330
H          0.25010        0.95890        0.11470
H          0.12740        1.25720        1.85790
H          2.54490        0.52780        2.16720
H          2.44550        1.50910       -0.74370
H          4.84740        0.78460       -0.47020
H          4.76100        1.07720        1.27670
H          4.05800        3.44530        0.57360
H          6.61210        2.45340       -0.54980
H          5.51460        5.05870        0.11010
