15
qm7 2178 -1509.54
C          1.89300        0.17250       -0.79680
O          1.69970       -0.06020        0.60320
C          0.51310        0.07200       -0.19360
C         -0.33470        1.24170        0.14100
C         -1.72530        0.70340       -0.15970
O         -1.66300       -0.71030        0.10200
C         -0.34170       -1.14300       -0.27630
H          2.26430        1.14540       -1.09350
H          2.26450       -0.65220       -1.39200
H         -0.24740        1.48630        1.20500
H         -0.11190        2.13640       -0.44690
H         -2.49960        1.16350        0.46040
H         -1.98790        0.84120       -1.21500
H         -0.38770       -1.52820       -1.30000
H         -0.02930       -1.94430        0.39900
