13
qm7 3002 -1378.22
C          1.00000        0.00000        0.00000
C          2.44400        0.00000        0.00000
C          3.63420        0.00000        0.00000
C          5.07810        0.00000        0.00000
O          5.52410        1.32970        0.29510
C          6.67820        1.41310        0.99260
O          7.38360        0.48830        1.35900
H          0.60600        1.02090        0.01170
H          0.60590       -0.52050        0.87830
H          0.60590       -0.50030       -0.88990
H          5.46750       -0.27570       -0.98560
H          5.44520       -0.72620        0.73410
H          6.90210        2.47510        1.18460
