16
qm7 5681 -1589.92
N          2.31240       -0.42500       -1.49300
C          2.40230        0.13120       -0.13700
C          3.36080        1.33320       -0.01500
O          3.46440        1.71400        1.37670
C          3.20320        3.12410        1.49090
C          2.80920        3.57470        0.13730
C          2.89400        2.55920       -0.71930
H          1.68030       -1.22490       -1.47800
H          3.22400       -0.79030       -1.76700
H          2.72890       -0.65830        0.55070
H          1.39840        0.42190        0.19620
H          4.36410        1.05460       -0.35770
H          4.11090        3.62570        1.83810
H          2.40190        3.27340        2.21970
H          2.50260        4.57990       -0.10770
H          2.66860        2.59760       -1.77500
