14
qm7 157 -1328.89
C          0.88810        0.00920        0.01920
C          2.37870       -0.08420       -0.01220
C          3.19580        0.98220        0.01300
C          4.68690        0.90440       -0.01340
N          5.18800        1.64420       -1.16070
H          0.50020       -0.52210        0.89370
H          0.46730       -0.45300       -0.87910
H          0.53820        1.04520        0.06610
H          2.79740       -1.08650       -0.06050
H          2.77320        1.98360        0.06500
H          5.03700       -0.13250       -0.06140
H          5.08540        1.34650        0.90570
H          4.84750        1.19570       -2.01030
H          6.20250        1.56410       -1.18810
