15
qm7 1628 -1515.95
C          1.16220       -0.09620       -0.04140
N          2.62320       -0.10410       -0.02870
C          3.20620       -0.61220       -1.26620
C          3.22180        0.86930       -0.94490
C          4.48840        1.55230       -0.52420
C          5.11540        1.97570       -1.78050
N          5.60870        2.31450       -2.77550
H          0.79450        0.65720        0.66310
H          0.78680       -1.07050        0.28870
H          0.72020        0.11850       -1.02220
H          2.54520       -0.96390       -2.05030
H          4.12010       -1.18400       -1.15510
H          2.54580        1.52690       -1.48300
H          5.15150        0.88480        0.03640
H          4.25770        2.41640        0.10710
