10
qm7 1154 -944.51
C          1.01690       -0.02050       -0.00070
S          2.78380       -0.13140        0.01080
O          3.29640       -0.53600        1.29780
O          3.31200       -0.55040       -1.26540
C          3.36740        1.55610        0.00470
C          3.76210        2.69160        0.00030
H          0.70050        0.50460       -0.90370
H          0.68930        0.51020        0.89500
H          0.61590       -1.03600       -0.00010
H          4.12770        3.69190       -0.00350
