17
qm7 2313 -1726.87
C          0.94770        0.00050        0.04020
C          2.46830        0.00030       -0.02030
C          3.02820       -1.20820       -0.72100
C          4.06740       -0.88870       -1.50050
C          4.36400        0.57990       -1.45790
C          3.08220        1.15880       -0.83850
O          2.21010        1.60040       -1.88340
H          0.57880        0.93890        0.46690
H          0.58900       -0.81960        0.67260
H          0.49280       -0.12960       -0.94810
H          2.87200        0.01410        1.00030
H          2.66850       -2.21610       -0.56000
H          4.65760       -1.60010       -2.06270
H          5.23680        0.75690       -0.82110
H          4.55200        0.97360       -2.46130
H          3.29600        2.02850       -0.20910
H          2.05150        0.83350       -2.46320
