15
qm7 5009 -1437.4
C          1.03140        0.01430        0.10510
N          2.44870        0.06180       -0.19160
O          3.10020        1.10670        0.48830
C          4.38090        1.25990       -0.13580
C          5.20040        0.00180        0.13110
N          4.48200       -1.23660       -0.22780
C          3.20500       -1.08470       -0.32060
H          0.58820        1.01060        0.01370
H          0.86140       -0.35230        1.12200
H          0.51330       -0.64700       -0.59770
H          4.87260        2.13430        0.30180
H          4.25290        1.44670       -1.20910
H          5.45420       -0.05840        1.19620
H          6.13850        0.04680       -0.43250
H          2.59010       -1.96570       -0.56800
