13
qm7 6636 -1220.93
C          1.02420       -1.20850       -0.14140
S          2.37120       -0.05250       -0.14460
O          3.15230       -0.25300        1.05930
O          2.98090       -0.06070       -1.45900
O          1.46880        1.30330        0.02090
C          2.06200        2.54040        0.05030
C          1.35670        3.66330        0.19000
H          0.36450       -0.98440       -0.98170
H          0.48900       -1.12510        0.80620
H          1.43880       -2.21280       -0.24950
H          3.14100        2.52180       -0.04940
H          0.27640        3.64170        0.28730
H          1.85000        4.62960        0.20990
