14
qm7 3848 -1353.47
C          1.68100       -0.12200        0.02530
C          0.71300       -1.20720        0.47710
O         -0.35190       -1.26760       -0.47100
N         -1.50670       -0.60880       -0.00890
C         -1.34770        0.65880        0.24500
C         -0.06760        1.48550        0.21820
O          1.04080        1.03320       -0.52120
H          2.31980       -0.51630       -0.77290
H          2.33930        0.17860        0.84770
H          1.21740       -2.17820        0.50520
H          0.33310       -1.01400        1.48800
H         -2.24300        1.19980        0.59600
H          0.22710        1.67710        1.25720
H         -0.35190        2.45780       -0.19960
