14
qm7 284 -1381.68
C          1.04900        0.06500        0.02350
C          2.56980       -0.01710       -0.01880
C          3.07250       -1.21930       -0.84700
N          3.42770       -0.68350       -2.19730
C          3.43440        0.60030       -2.01620
N          3.11580        1.08630       -0.78740
H          0.72700        0.97180        0.54470
H          0.63110       -0.79850        0.55020
H          0.61640        0.09210       -0.98230
H          2.97690       -0.03580        0.99720
H          2.32140       -2.01080       -0.93600
H          3.97660       -1.64740       -0.39880
H          3.64810        1.34550       -2.79860
H          2.65550        1.98650       -0.73530
