14
qm7 4855 -1459.88
C          0.25970       -0.38510        0.35860
C          1.72290       -0.21300       -0.00460
O          1.86600        1.02710       -0.69790
C          3.11880        1.37850       -1.11960
C          4.27850        0.72290       -0.96920
C          5.49600        1.24700       -1.48170
N          6.49410        1.66650       -1.89690
H          0.09620       -1.33190        0.88100
H         -0.36630       -0.36350       -0.53970
H         -0.07660        0.43540        1.00110
H          2.03700       -1.04220       -0.64900
H          2.32570       -0.20530        0.91080
H          3.05310        2.33370       -1.63450
H          4.34240       -0.22660       -0.45540
