19
qm7 2480 -1846.33
C          0.90160       -0.09880        0.14070
C          2.41690       -0.02210       -0.03160
C          2.84310       -0.03870       -1.50290
O          2.38360        1.13650       -2.16400
C          3.10090        1.07500        0.83980
C          4.18360        0.04400        1.20840
C          3.18070       -1.06600        0.83820
H          0.61890       -0.15180        1.19830
H          0.49600       -0.98770       -0.35470
H          0.40830        0.78270       -0.28220
H          2.44370       -0.91490       -2.02600
H          3.93260       -0.06270       -1.60750
H          1.42020        1.05820       -2.26730
H          2.50900        1.40370        1.70310
H          3.46270        1.96230        0.31270
H          5.06620        0.07760        0.56020
H          4.51230        0.05540        2.25110
H          3.60690       -1.92290        0.30840
H          2.61960       -1.44030        1.70320
