16
qm7 5790 -1552.34
N          2.65580       -0.73590       -1.19390
C          2.28670       -0.01810        0.03000
C          2.83780        1.41190        0.02000
O          4.26830        1.35910        0.03700
C          4.83690        2.66560       -0.00460
C          6.29880        2.55430        0.00810
C          7.49740        2.46570        0.01710
H          2.49300       -1.73240       -1.05920
H          3.66660       -0.62920       -1.31660
H          2.69710       -0.56160        0.88820
H          1.19640        0.00060        0.11980
H          2.48640        1.94340        0.91160
H          2.49400        1.94840       -0.87250
H          4.49840        3.23900        0.86570
H          4.50940        3.18030       -0.91470
H          8.55890        2.37900        0.02430
