15
qm7 1674 -1521.81
C          2.91390       -1.09930       -0.48460
N          2.35350        0.08520        0.15650
C          3.31100        1.20170        0.19310
C          3.43330        2.09660       -1.00750
C          2.78710        2.61910        0.24980
C          3.48650        3.58280        1.04850
N          4.05930        4.35820        1.69540
H          2.16360       -1.89570       -0.50250
H          3.78970       -1.46840        0.05900
H          3.20040       -0.88970       -1.52020
H          2.05800       -0.16460        1.10200
H          4.22970        0.99420        0.74130
H          2.79110        1.90660       -1.86020
H          4.42360        2.44840       -1.27480
H          1.71010        2.74830        0.22090
