12
qm7 748 -1294.93
C          1.00000        0.00000        0.00000
C          2.19020        0.00000        0.00000
C          3.63420        0.00000        0.00000
C          4.19640        1.42160       -0.00630
C          5.66800        1.41520       -0.00690
C          6.86930        1.41410       -0.00740
H         -0.06590       -0.00220        0.00000
H          4.00590       -0.54790       -0.87500
H          4.00590       -0.54000        0.87990
H          3.83480        1.97250        0.87100
H          3.83420        1.96480       -0.88830
H          7.93610        1.41530       -0.00790
