16
qm7 6290 -1602.21
O          1.52630        0.68820        2.77440
C          2.41770        1.13110        2.06370
N          3.38990        0.34820        1.50970
C          4.45850        0.86200        0.65270
C          5.65580        1.48120        1.41350
C          6.56920        0.82400        0.35870
C          5.44840       -0.21380        0.14390
H          2.51280        2.19940        1.80980
H          3.30530       -0.63570        1.73950
H          4.07240        1.50130       -0.15140
H          5.80670        1.09210        2.42770
H          5.68390        2.57350        1.44470
H          6.75920        1.45630       -0.51620
H          7.51910        0.43050        0.72910
H          5.30340       -0.54120       -0.88910
H          5.54100       -1.09710        0.78720
