10
qm7 6017 -1152.05
O          1.00500       -0.00780        0.17740
C          2.22460       -0.01890        0.06750
C          2.94690        1.25950       -0.01780
C          4.27070        1.22150       -0.14030
O          5.01060        0.05150       -0.19150
C          4.25320       -1.07580       -0.10200
N          2.97590       -1.15930        0.01800
H          2.37000        2.17180        0.02230
H          4.90830        2.09180       -0.21260
H          4.89920       -1.96580       -0.14670
