16
qm7 5201 -1609.12
C          0.68450        0.15810        1.09100
N          1.95990       -0.28620        0.58840
C          3.00850        0.59880        0.44070
O          2.94640        1.77750        0.78140
C          4.26250       -0.01320       -0.17620
C          4.58870        0.66890       -1.47280
C          4.69230        0.04760       -2.65500
H          0.11020       -0.71700        1.40360
H          0.15560        0.68220        0.29080
H          0.82500        0.83410        1.93870
H          1.99810       -1.16860        0.09570
H          4.13450       -1.09200       -0.31560
H          5.08440        0.12450        0.53440
H          4.75070        1.74550       -1.42420
H          4.54460       -1.02240       -2.75850
H          4.93500        0.60860       -3.55310
