13
qm7 6877 -1412.17
C          1.07750       -0.05020       -0.17140
C          2.38470       -0.03530        0.08560
N          3.22730       -1.07790        0.33450
C          4.49340       -0.62090        0.54930
N          5.54580       -1.30630        0.81240
C          4.49420        0.85640        0.43200
C          3.21220        1.15870        0.15430
H          0.52340       -0.98190       -0.20690
H          0.52480        0.86470       -0.35290
H          2.92490       -2.03600        0.35170
H          5.30080       -2.29840        0.84290
H          5.35160        1.49010        0.55140
H          2.83550        2.15860        0.00040
