13
qm7 3766 -1356.74
O          2.69800       -0.61860        1.31540
C          2.34460        0.02140        0.08810
C          2.92740        1.43280        0.00000
C          2.38210        2.24520        1.14940
O          1.46650        3.05660        1.02370
C          4.37140        1.43280        0.00000
C          5.56170        1.43280        0.00000
H          2.36290       -1.53220        1.26910
H          1.25020        0.05370        0.03660
H          2.71150       -0.60110       -0.73610
H          2.56950        1.89640       -0.92760
H          2.80660        2.02560        2.14480
H          6.62790        1.43110        0.00290
