15
qm7 2941 -1548.19
C          1.00000        0.00000        0.00000
C          2.44400        0.00000        0.00000
C          3.63420        0.00000        0.00000
C          5.07810        0.00000        0.00000
O          5.56320        1.26250        0.46090
C          6.91850        1.42940        0.51840
C          7.89210        0.56660        0.20030
H          0.60600        1.02080        0.01370
H          0.60590       -0.52230        0.87720
H          0.60590       -0.49850       -0.89090
H          5.44360       -0.18440       -1.01740
H          5.44420       -0.79640        0.65900
H          7.13700        2.42770        0.88280
H          7.70590       -0.43440       -0.16520
H          8.93150        0.86380        0.30600
