12
qm7 58 -1161.23
C          0.99220       -0.01900       -0.01610
C          2.49250        0.02680       -0.00180
C          3.20970       -1.29220       -0.00690
C          3.17120        1.18490        0.01870
H          0.55000        0.98120       -0.01330
H          0.62110       -0.55060        0.86700
H          0.63760       -0.53960       -0.91120
H          2.50610       -2.12810        0.05550
H          3.88790       -1.36820        0.84980
H          3.78620       -1.41140       -0.92940
H          2.66180        2.14320        0.02200
H          4.25600        1.20310        0.02720
