14
qm7 798 -1373.15
C          0.99440       -0.32660        0.29170
C          2.36090        0.06950       -0.25130
O          2.61480       -0.67360       -1.43950
C          2.45880        1.58190       -0.48580
C          3.50450        2.05290       -1.46330
O          1.74280        2.39080        0.10740
H          0.78680        0.15780        1.25000
H          0.93180       -1.41230        0.42490
H          0.20180       -0.04570       -0.41010
H          3.13780       -0.19660        0.47480
H          1.83830       -0.58350       -2.01880
H          4.46500        1.58740       -1.23430
H          3.61640        3.13920       -1.38840
H          3.19190        1.79900       -2.48050
