10
qm7 4301 -1143.43
C          1.00970       -0.05470       -0.12170
C          2.20220        0.04460       -0.02400
C          3.62300        0.16410        0.09640
O          4.33740       -0.53110       -0.93530
C          4.39510        0.90350       -0.96590
C          5.67650        1.44690       -0.63900
N          6.70410        1.90890       -0.36190
H         -0.04810       -0.15010       -0.20900
H          4.03390        0.11480        1.09900
H          3.84570        1.40330       -1.75350
