13
qm7 4715 -1337.21
C          2.48220       -1.09250        0.09150
C          2.15120        0.20510        0.11060
N          2.93460        1.29940       -0.25430
C          2.36330        2.56250       -0.15640
N          2.92540        3.68510       -0.44720
C          4.24510        1.17290       -0.70290
O          4.99500        2.08380       -1.04700
H          1.75270       -1.83430        0.40900
H          3.44020       -1.48580       -0.22290
H          1.14510        0.45160        0.45050
H          1.32360        2.57250        0.20990
H          3.89230        3.50980       -0.77500
H          4.60750        0.13730       -0.73740
