13
qm7 3626 -1389.47
O          0.93520        0.62340       -0.55530
C          1.98630        0.28730       -0.02350
C          3.16830        1.17980        0.00280
C          3.55590        1.97910       -1.21660
C          2.97630        2.68320       -0.01460
C          3.83050        3.54590        0.83500
O          4.93290        3.18180        1.22200
H          2.10520       -0.69440        0.46360
H          3.99140        0.79060        0.59600
H          2.93550        1.90230       -2.10320
H          4.61360        2.09880       -1.42540
H          1.96120        3.05410       -0.12700
H          3.41780        4.53490        1.09570
