17
qm7 5444 -1567.19
C          2.12590       -0.16280       -2.21110
O          2.97820       -0.04520       -1.07770
N          3.61930        1.20120       -1.13280
C          4.34480        1.33910       -0.07370
C          5.15830        2.58220        0.14660
C          6.63850        2.23210        0.07550
N          7.46140        3.40750        0.34440
H          1.62210       -1.13200       -2.16580
H          2.71260       -0.11240       -3.13350
H          1.36990        0.62830       -2.20030
H          4.40570        0.55330        0.70130
H          4.89990        2.97840        1.13470
H          4.89620        3.33260       -0.60760
H          6.88720        1.82890       -0.91280
H          6.87930        1.45470        0.80960
H          7.28360        4.11960       -0.36430
H          8.44620        3.15960        0.25120
