13
qm7 3580 -1412.13
O          0.90680       -0.15130        0.21360
C          2.12690       -0.10280        0.08860
C          2.82830        1.21950       -0.12880
C          4.33770        1.24890        0.02830
C          4.97990       -0.08600       -0.04170
C          4.25880       -1.20300       -0.03070
O          2.86800       -1.24580        0.06080
H          2.39280        1.93670        0.57980
H          2.55990        1.55410       -1.13760
H          4.60250        1.71490        0.98380
H          4.75990        1.89120       -0.75260
H          6.06490       -0.13950       -0.08460
H          4.66540       -2.20570       -0.06210
