18
qm7 5204 -1780.35
C          1.03500       -0.07010       -0.05120
C          2.52650        0.06500       -0.00920
C          3.43740       -0.58880       -1.09340
C          4.51460       -0.31110        0.00550
C          3.39150       -0.74330        1.00490
N          4.53880        1.16610        0.10670
C          3.10130        1.46910        0.10910
H          0.57520        0.33950        0.85430
H          0.73460       -1.12030       -0.13050
H          0.61430        0.46140       -0.91210
H          3.54710       -0.05440       -2.04290
H          3.24220       -1.64590       -1.31050
H          5.46480       -0.84140       -0.01600
H          3.19100       -1.82030        1.05590
H          3.45940       -0.35450        2.02610
H          4.96120        1.51200        0.96790
H          2.83560        2.10450       -0.74240
H          2.79790        1.96360        1.03870
