12
qm7 100 -1131.72
C          0.97220       -0.07160       -0.03540
N          2.42730       -0.00060       -0.09640
C          2.87840        1.39240        0.01130
C          4.39130        1.41590       -0.00980
O          5.04900        2.01830       -0.85450
H          0.65510       -1.11560       -0.11970
H          0.50840        0.48870       -0.85360
H          0.59740        0.31090        0.91930
H          2.73390       -0.37490       -0.99720
H          2.55660        1.84060        0.95720
H          2.50290        1.99690       -0.82130
H          4.88790        0.86850        0.81000
