15
qm7 2819 -1566.33
C          1.00000        0.00000        0.00000
C          2.44400        0.00000        0.00000
C          3.63420        0.00000        0.00000
C          5.07810        0.00000        0.00000
C          5.62830       -0.77240       -1.19310
C          5.60930        1.41530       -0.05510
O          6.55440        1.81270        0.62160
H          0.60600        1.02090        0.01160
H          0.60590       -0.52050        0.87830
H          0.60600       -0.50040       -0.88990
H          5.45000       -0.45750        0.92430
H          5.30080       -0.33400       -2.14340
H          5.29600       -1.81620       -1.17480
H          6.72430       -0.76570       -1.19010
H          5.14810        2.07620       -0.81050
