11
qm7 6577 -1069.99
C          2.69450       -0.67090       -1.19130
C          3.02310       -0.07760       -0.03590
S          3.26550        1.63920        0.04980
O          2.74220        2.29270       -1.13850
O          2.90450        2.10980        1.37350
C          5.03000        1.83360       -0.06290
O          5.79770        0.97990        0.37440
H          2.54710       -1.74580       -1.23580
H          2.55720       -0.11350       -2.11450
H          3.15580       -0.63510        0.88140
H          5.37960        2.75530       -0.55220
