16
qm7 4757 -1547.29
C          1.62160       -1.78240        1.22030
C          2.68110       -0.99440        0.45230
N          3.64430       -1.92640       -0.15190
C          2.06620       -0.07400       -0.62130
O          1.33650       -0.83130       -1.60750
C         -0.01420       -0.77320       -1.53270
O         -0.67860       -0.18000       -0.69900
H          0.89120       -1.10460        1.67540
H          2.07870       -2.36460        2.02860
H          1.08030       -2.48200        0.57410
H          3.22870       -0.36550        1.16370
H          3.17450       -2.45660       -0.88730
H          3.94910       -2.60770        0.54200
H          2.86280        0.45590       -1.15660
H          1.44230        0.69640       -0.15230
H         -0.44240       -1.36850       -2.35440
