15
qm7 2712 -1549.51
C          1.00000        0.00000        0.00000
C          2.44400        0.00000        0.00000
C          3.63420        0.00000        0.00000
C          5.06210        0.06230        0.05500
O          5.71780       -0.52960       -1.07740
C          5.79180        0.89670       -0.96700
C          7.14760        1.43280       -0.68460
H          0.60600        1.02090        0.01160
H          0.60590       -0.52050        0.87830
H          0.60600       -0.50030       -0.88990
H          5.52090       -0.08170        1.02530
H          5.23530        1.48840       -1.67980
H          7.68790        0.82740        0.05130
H          7.07140        2.45320       -0.29270
H          7.74190        1.46500       -1.60270
