17
qm7 3109 -1746.83
C          0.84050        0.02710        0.21840
C          2.29920        0.15650       -0.23400
C          2.60600       -0.73500       -1.45230
C          2.52380       -2.17110       -1.13360
C          2.45380       -3.34310       -0.88170
C          2.58770        1.60430       -0.56870
C          3.50960        2.34990        0.05420
H          0.63090        0.69720        1.06000
H          0.61730       -0.99200        0.55040
H          0.14550        0.27750       -0.59110
H          2.93750       -0.15710        0.60360
H          3.61750       -0.51960       -1.82040
H          1.91840       -0.50370       -2.27550
H          2.38940       -4.38340       -0.65950
H          1.99980        2.05650       -1.36610
H          4.12190        1.95040        0.85670
H          3.66970        3.38590       -0.22910
