15
qm7 977 -1414.07
C          2.04690       -0.32710        1.39140
C          2.42040        0.08550       -0.01990
C          3.04490        1.46480       -0.02230
C          2.12600        2.65920        0.09220
N          4.34140        1.55000       -0.07520
O          4.76600        2.88350       -0.03440
H          1.61200       -1.33170        1.39330
H          1.31500        0.36250        1.82580
H          2.92600       -0.33210        2.04490
H          1.53510        0.09360       -0.66350
H          3.13120       -0.63330       -0.44160
H          1.08170        2.34840        0.00650
H          2.34110        3.37390       -0.70590
H          2.27320        3.13710        1.06420
H          5.73630        2.79340       -0.08260
