13
qm7 2533 -1367.72
C          1.08420        0.06400        0.20210
C          2.32760       -0.12280       -0.25010
O          2.73110       -1.40220       -0.63640
C          4.05450       -1.25010       -1.20760
C          4.53250        0.13470       -0.93100
O          3.95710        1.19870       -1.69010
C          3.36190        0.89750       -0.41690
H          0.73230        1.04640        0.49550
H          0.39240       -0.76840        0.27500
H          4.70860       -1.99520       -0.74460
H          3.99420       -1.44890       -2.28280
H          5.50400        0.23910       -0.47900
H          3.51630        1.58940        0.40120
