16
qm7 4320 -1614.9
C          0.97280       -0.07300       -0.00230
C          2.48850        0.04780       -0.12260
C          2.97180       -0.59230       -1.40170
C          3.80730       -1.63810       -1.46040
C          2.91290        1.51900       -0.13260
N          4.17990        1.75700        0.32470
O          2.21680        2.44260       -0.54060
H          0.61600        0.43380        0.90200
H          0.66670       -1.12380        0.05740
H          0.45610        0.38070       -0.85710
H          2.94370       -0.43480        0.75090
H          2.60490       -0.15890       -2.33310
H          4.19820       -2.11350       -0.56670
H          4.11000       -2.04970       -2.41920
H          4.85030        1.00900        0.43370
H          4.52320        2.70450        0.24470
