17
qm7 2175 -1707.66
C         -0.93830        0.03360       -1.16210
C         -0.61210        1.05650       -0.03120
C         -1.19300       -0.02570        0.92800
C         -0.55380       -1.02540       -0.07860
O          0.87310       -1.20340        0.12610
C          1.65930       -0.03240       -0.12310
C          0.89050        1.25370        0.21080
H         -1.99020        0.00800       -1.47190
H         -0.31370        0.07550       -2.05760
H         -1.17280        1.99530       -0.05740
H         -0.79270       -0.04110        1.94530
H         -2.28750       -0.06220        0.97830
H         -1.05900       -1.99120       -0.16080
H          1.93900       -0.04260       -1.18240
H          2.58330       -0.09460        0.46020
H          1.27960        2.08060       -0.39370
H          1.05480        1.52360        1.26120
