14
qm7 745 -1428.61
C          1.34240       -1.27760       -0.31520
C          2.35580       -0.17500       -0.05760
C          1.69960        1.18470        0.10350
O          0.48290        1.35380        0.01850
C          2.55180        2.37690        0.37240
C          3.88300        2.35970        0.50960
H          1.84930       -2.23980       -0.43990
H          0.76230       -1.07660       -1.22250
H          0.63880       -1.36750        0.51960
H          3.05360       -0.12890       -0.90030
H          2.91010       -0.40930        0.85720
H          2.00080        3.31000        0.45570
H          4.47650        1.45490        0.43680
H          4.42030        3.28320        0.70550
