13
qm7 5406 -1338.76
C          1.16280        0.08040       -0.41950
O          2.38130        0.40820       -1.08890
C          3.01860        1.48390       -0.49680
N          2.33010        2.67130       -0.51660
C          4.25990        1.28580       -0.03120
C          5.05240        2.29810        0.56450
N          5.70510        3.13180        1.03870
H          0.80480       -0.87150       -0.82280
H          0.39470        0.83730       -0.60880
H          1.32270       -0.04360        0.65720
H          1.72820        2.73750       -1.33460
H          2.91240        3.49940       -0.40790
H          4.70380        0.29990       -0.10390
