19
qm7 3679 -1844.62
O          2.47920        1.67670       -2.11160
C          2.32530        2.20160       -0.79930
C          2.96300        1.25040        0.20520
C          4.48330        1.30100        0.10930
C          5.19860        2.53070        0.73570
C          6.31260        1.56170        1.18240
C          5.25180        0.44290        1.15050
H          2.04550        2.29850       -2.72090
H          1.25320        2.29230       -0.59770
H          2.77910        3.19720       -0.76170
H          2.62450        0.22680        0.00820
H          2.63960        1.52100        1.21660
H          4.83440        1.09230       -0.91220
H          4.66080        2.99340        1.57100
H          5.50450        3.31080        0.03440
H          7.11000        1.43510        0.44150
H          6.75970        1.76620        2.15810
H          5.60190       -0.53030        0.79600
H          4.72910        0.30690        2.10510
