12
qm7 2129 -1272.56
N          1.00640       -0.14790        0.23200
C          2.36170       -0.06050        0.05310
N          3.02160       -1.16290       -0.11470
C          3.10780        1.24370        0.03560
C          2.52240        2.35660        0.51100
C          4.44140        1.28730       -0.47150
N          5.51980        1.40670       -0.88540
H          0.46120        0.66100       -0.04520
H          0.57260       -1.01210       -0.06890
H          2.39730       -1.96770       -0.04450
H          1.52760        2.35880        0.94030
H          3.05150        3.30660        0.51360
