15
qm7 3245 -1524.61
C          1.11300       -0.40200        0.36720
C          2.41570        0.19260       -0.15370
O          2.95370       -0.72250       -1.11320
C          2.20100        1.54370       -0.78450
C          2.09540        1.79470       -2.10030
C          2.12880        2.70450        0.14110
O          2.26280        2.59060        1.35320
H          0.65410        0.22940        1.13450
H          1.29380       -1.39320        0.79830
H          0.39010       -0.54400       -0.44500
H          3.14280        0.25570        0.66370
H          3.85510       -0.41580       -1.31120
H          2.13520        0.98360       -2.82330
H          1.94860        2.79310       -2.50010
H          1.95330        3.68750       -0.32800
