15
qm7 2739 -1544.29
C          1.00090       -0.05400        0.00280
C          2.52000        0.00000        0.00000
C          3.00200        1.36120        0.00000
C          3.39930        2.48310        0.00000
C          3.95310        3.80130        0.05280
C          3.90400        4.68230       -1.16400
O          2.97600        4.84020       -0.08440
H          0.65750       -1.09330        0.00210
H          0.58530        0.44200       -0.88120
H          0.58860        0.43980        0.88950
H          2.89580       -0.53280       -0.88080
H          2.89900       -0.53400        0.87850
H          4.75690        3.96680        0.76050
H          3.52500        4.27690       -2.09390
H          4.67480        5.43470       -1.27870
