17
qm7 2258 -1710.69
C          0.76600        0.01900        0.09740
C          2.25620        0.02070        0.16160
C          3.10620       -0.84250       -0.74150
C          2.63680       -1.42360       -2.02970
O          2.65800       -0.36280       -2.99880
C          2.65060        0.89840       -2.31020
C          3.11450        0.63560       -0.91970
H          0.37680        0.95740        0.50610
H          0.36930       -0.80190        0.70140
H          0.37490       -0.09110       -0.91720
H          2.59420        0.14170        1.18620
H          3.98850       -1.32290       -0.34250
H          3.29980       -2.21990       -2.38080
H          1.62100       -1.82380       -1.96130
H          3.32320        1.57980       -2.83980
H          1.64000        1.31600       -2.34140
H          4.00200        1.18750       -0.64490
