15
qm7 2426 -1537.44
C          1.03420       -0.01070        0.02610
C          2.54840       -0.00140        0.11800
C          3.09310        1.22120        0.83380
C          4.37720        0.64570        1.32650
O          5.32670        1.31580        1.71470
C          4.33610       -0.85740        1.31190
O          2.98630       -1.13180        0.88990
H          0.69000       -0.91740       -0.48280
H          0.66460        0.86040       -0.52280
H          0.57880       -0.02010        1.02240
H          2.98210       -0.09030       -0.88660
H          2.48730        1.50720        1.69830
H          3.24510        2.06570        0.15960
H          5.03710       -1.25950        0.57720
H          4.49180       -1.27470        2.30790
