9
qm7 2070 -1093.99
N          1.00000        0.00000        0.00000
C          2.15100        0.00000        0.00000
C          3.59500        0.00000        0.00000
C          4.07700        1.36120        0.00000
C          4.47430        2.48310        0.00000
C          4.99070        3.93050        0.00000
N          5.38970        5.01870        0.00000
H          3.97200       -0.53470       -0.87860
H          3.97200       -0.53470        0.87860
