14
qm7 6298 -1451.03
O          2.79730        1.09160       -2.33970
C          2.21840        1.12310       -1.26390
N          2.82200        1.14940       -0.03440
C          4.26540        1.22380        0.10650
C          4.80650        2.64840       -0.03950
C          4.34540        3.52190        1.05430
C          3.96900        4.23890        1.94220
H          1.11870        1.13660       -1.18200
H          2.24830        1.30940        0.78390
H          4.72060        0.58280       -0.65710
H          4.51380        0.80890        1.08960
H          4.50320        3.07410       -1.00270
H          5.90190        2.61410       -0.03210
H          3.63740        4.88070        2.72520
