15
qm7 3525 -1505.95
O          1.01040        0.03840       -0.03850
C          2.42730       -0.02200       -0.05050
C          2.97190       -1.14880        0.83110
C          3.74990       -0.28400        1.81730
C          4.50810        0.77660        0.97280
C          3.02130        1.15520        0.72270
O          2.82810        0.83660        2.18230
H          0.67090       -0.85060       -0.23480
H          2.78390       -0.07630       -1.08340
H          3.63650       -1.81710        0.27610
H          2.18820       -1.73210        1.32270
H          4.26150       -0.72770        2.67140
H          5.08160        0.41480        0.11630
H          5.09420        1.50520        1.54030
H          2.78800        2.18760        0.46220
