13
qm7 2900 -1410.66
C          1.59650       -0.67460        0.12840
C          2.63250       -0.06160        0.71920
C          3.12900        1.31640        0.36950
C          3.06830        2.25240        1.57210
O          2.94730        1.91120        2.74630
C          4.51160        1.23690       -0.13630
C          5.63790        1.17270       -0.54610
H          1.28870       -1.66660        0.44680
H          1.03450       -0.21170       -0.67640
H          3.15080       -0.57450        1.52930
H          2.48410        1.76070       -0.39870
H          3.16480        3.32390        1.32140
H          6.64060        1.10620       -0.90440
