15
qm7 4529 -1434.72
C          0.66000       -0.05430       -0.17670
C          1.98070       -0.08470        0.51940
C          3.07550        0.55040        0.07980
N          4.33000        0.58790        0.64860
O          4.57710       -0.15820        1.80480
C          5.44520        1.24310        0.18010
N          6.61470        1.28670        0.72720
H          0.34940       -1.07250       -0.43060
H          0.69180        0.53260       -1.10030
H         -0.09810        0.38320        0.48000
H          2.02400       -0.65300        1.44530
H          3.02510        1.13490       -0.83700
H          4.75320       -1.04480        1.43990
H          5.27750        1.76660       -0.77640
H          6.53800        0.76880        1.61260
