19
qm7 1700 -1779.91
C          0.79140        1.44140        0.80500
N          1.77400        0.95700       -0.15090
C          3.14690        1.48000        0.08810
C          3.93010        0.88090        1.25620
N          3.66840       -0.55460        1.37450
C          3.92810        1.83410       -1.16110
C          3.42400        2.92430       -0.26640
H          1.06620        1.19840        1.83560
H         -0.17800        0.97830        0.59700
H          0.66160        2.52470        0.71930
H          1.82140       -0.06340       -0.12890
H          3.64210        1.38150        2.18710
H          5.00670        1.03530        1.12070
H          2.71650       -0.67470        1.71630
H          4.27180       -0.93610        2.10090
H          3.44300        1.70330       -2.12240
H          4.99350        1.63830       -1.18270
H          4.14920        3.47270        0.32360
H          2.60480        3.53410       -0.63050
