16
qm7 1457 -1607.48
C          3.05920       -1.09950       -0.57910
C          2.49120        0.16200        0.05490
N          3.51560        1.20780        0.07450
C          3.43860        2.13630       -1.04610
C          2.96610        2.53960        0.33260
C          3.76220        3.46150        1.08720
C          4.42810        4.23410        1.72180
H          2.31090       -1.89860       -0.56280
H          3.94090       -1.45470       -0.03480
H          3.34520       -0.92640       -1.62190
H          2.19690       -0.06360        1.08680
H          1.57840        0.45420       -0.48080
H          2.69730        1.96730       -1.81680
H          4.38810        2.51610       -1.40420
H          1.89370        2.61730        0.48340
H          5.02560        4.91110        2.28630
