15
qm7 2160 -1454.58
C         -1.74710        0.85450        0.41370
C         -1.36920       -0.42090       -0.25870
O         -0.34000       -1.26450        0.24420
C          0.72400       -0.61680       -0.47540
C          1.92300       -0.16640        0.20630
C          0.85390        0.88250       -0.07090
C         -0.61740        0.85490       -0.60420
H         -2.68320        1.31720        0.12770
H         -1.51120        0.95230        1.46660
H         -2.05450       -0.82780       -0.99430
H          0.87580       -0.91110       -1.51510
H          2.07140       -0.50020        1.22840
H          2.84400       -0.09060       -0.36100
H          0.80580        1.39410        0.89420
H         -0.81410        1.32180       -1.56470
