14
qm7 641 -1348.07
C          0.84240        0.15080       -0.28330
C          2.26480       -0.07670        0.11840
C          2.60580        0.05890        1.57050
O          2.14940       -1.08790        2.27990
C          3.16960       -0.89080       -0.77740
O          3.21300        0.54430       -0.76490
H          0.71670        0.12600       -1.37180
H          0.49350        1.12650        0.07050
H          0.19560       -0.62160        0.14460
H          2.14810        0.95240        2.00810
H          3.68760        0.13170        1.72290
H          1.17820       -1.06020        2.27820
H          2.74910       -1.37310       -1.65110
H          3.99990       -1.42410       -0.32930
