15
qm7 3319 -1580.76
C          1.05980        0.17640       -0.62130
O          2.32960        0.11060        0.01630
C          3.06520        1.25720       -0.01010
C          4.40490        1.30900        0.02700
C          4.84500        2.74150        0.00400
C          3.53270        3.47280       -0.03690
C          2.51950        2.59280       -0.04000
H          0.66460       -0.84170       -0.68980
H          1.14420        0.57570       -1.63790
H          0.35620        0.76870       -0.02780
H          5.06220        0.45560        0.06910
H          5.44580        2.95760       -0.88400
H          5.40980        2.99600        0.90540
H          3.43210        4.54720       -0.04760
H          1.47210        2.84620       -0.04540
