19
qm7 3159 -1839.45
C          1.14140        1.14050        0.75310
C          2.53060        0.85690        0.22220
O          3.34300        2.00450        0.45180
C          4.64970        1.84390       -0.09450
C          5.42780        3.08850        0.18590
C          6.39880        3.63800       -0.82860
C          5.11360        4.36650       -0.54880
H          0.48430        0.27770        0.60890
H          0.70410        2.00650        0.24530
H          1.17730        1.38210        1.82070
H          2.48010        0.64330       -0.85190
H          2.96220       -0.00700        0.73960
H          4.57570        1.66000       -1.17240
H          5.14540        0.98670        0.37520
H          5.67970        3.17230        1.23760
H          6.49570        3.13960       -1.78590
H          7.31910        4.07840       -0.46310
H          5.15920        5.29280        0.01220
H          4.33120        4.34410       -1.29990
