16
qm7 4620 -1575.89
C          1.78640       -0.15960        0.56260
C          2.60680       -0.20090       -0.72230
C          1.85250       -1.02690       -1.74900
O          2.28050       -2.08070       -2.21850
N          2.74890        1.16610       -1.25440
C          3.99780        1.81560       -0.85840
C          3.80530        1.29760       -2.25820
H          2.29440        0.42150        1.34000
H          1.62530       -1.17240        0.94970
H          0.79640        0.28300        0.39790
H          3.56730       -0.69400       -0.52630
H          0.86750       -0.63490       -2.05420
H          4.68430        1.28930       -0.20430
H          3.94630        2.88700       -0.70140
H          3.61810        2.01810       -3.04540
H          4.34800        0.41150       -2.56480
