15
qm7 6434 -1422.13
C          0.92790        0.04390       -0.01460
C          2.44200        0.00250        0.01330
C          3.13890        1.01400        0.96370
C          4.29120        0.02720        1.25520
S          3.20360       -1.32920        0.92100
O          2.44060       -1.70100        2.09470
O          3.81280       -2.29610        0.03450
H          0.53000       -0.79940       -0.58790
H          0.57830        0.96650       -0.48870
H          0.50050        0.00110        0.99230
H          2.84800        0.03980       -1.00670
H          2.55290        1.26730        1.85660
H          3.44720        1.95190        0.49150
H          5.12370        0.07480        0.54620
H          4.67690        0.04850        2.27720
