15
qm7 1036 -1406.71
C          2.21390       -0.49290       -1.34190
N          2.32440        0.08860       -0.00820
C          3.18690        1.28010       -0.06520
C          2.38020        2.52990       -0.44920
O          2.82470        3.21830        0.75330
C          3.25160        1.94770        1.31770
H          1.55110       -1.36340       -1.30520
H          3.18820       -0.82670       -1.71440
H          1.78320        0.21680       -2.05590
H          2.66610       -0.62900        0.63140
H          4.15760        1.16450       -0.55690
H          1.28840        2.44510       -0.46630
H          2.72390        3.03960       -1.35360
H          4.25410        2.01720        1.74960
H          2.54550        1.60550        2.08190
