19
qm7 2435 -1844.38
C          1.06720        0.08660       -0.11930
C          2.55630        0.04920       -0.08880
C          3.39100       -0.65320       -1.13190
O          2.74100       -1.20560       -2.28480
C          3.43750        0.86130       -1.02760
C          2.83360        1.69910       -2.12750
C          4.68550        1.47410       -0.43830
H          0.70220        0.84820        0.57720
H          0.66590       -0.87990        0.20200
H          0.64850        0.31180       -1.10240
H          2.89270       -0.06490        0.93920
H          4.25860       -1.20140       -0.77300
H          1.78440       -1.04550       -2.29460
H          1.96990        1.23240       -2.60860
H          3.57770        1.88480       -2.90970
H          2.51010        2.66650       -1.72870
H          5.10580        0.86020        0.36540
H          4.46360        2.46280       -0.02390
H          5.45370        1.58710       -1.21000
