17
qm7 2445 -1644.06
C          1.05180       -0.06130        0.00890
C          2.54210       -0.03970       -0.01770
C          3.32470       -0.70040       -1.12510
O          2.56820       -1.30420       -2.18240
C          3.27560        0.80490       -1.03180
C          4.49080        1.57010       -0.63340
O          5.26970        1.83160       -1.79080
H          0.67950        0.71610        0.68390
H          0.69570       -1.02880        0.37610
H          0.61180        0.11400       -0.97790
H          2.95100       -0.12060        0.98390
H          4.24080       -1.20600       -0.83370
H          2.09520       -0.64900       -2.72330
H          2.68630        1.35660       -1.75500
H          5.11020        1.03060        0.09070
H          4.20480        2.52900       -0.19100
H          5.50130        0.96980       -2.17770
