14
qm7 5952 -1345.59
O          0.22140        0.64970       -0.40020
C          1.35960       -0.08780        0.07230
C          2.00680       -0.98780       -0.93670
C          2.68780        0.28880       -0.52780
O          3.83870        0.13450        0.32480
N          3.97780        1.34250        1.01960
C          5.00790        1.25360        1.78950
H          0.16870        1.51230        0.04810
H          1.35370       -0.41540        1.10680
H          1.57200       -1.03370       -1.92740
H          2.42190       -1.92390       -0.58560
H          2.70970        1.08860       -1.26060
H          5.29340        2.10560        2.42520
H          5.63790        0.34990        1.85110
