19
qm7 2411 -1846.98
C          0.79840        0.27790       -0.42870
C          2.23630        0.05320       -0.03450
C          2.53610        0.10170        1.45800
C          1.64170       -0.79900        2.30780
O          1.85590       -2.17210        2.00400
C          3.07830       -0.85270       -0.91170
C          3.29460        0.63250       -0.95300
H          0.68810        0.42130       -1.50870
H          0.39790        1.16620        0.06980
H          0.18420       -0.58510       -0.15150
H          2.42340        1.13770        1.79870
H          3.58170       -0.18280        1.63040
H          0.57960       -0.57090        2.17690
H          1.87990       -0.65780        3.36690
H          1.69010       -2.28300        1.05170
H          2.62050       -1.31720       -1.77850
H          3.85000       -1.46020       -0.45130
H          4.20730        1.02460       -0.51500
H          2.98140        1.16800       -1.84230
