13
qm7 4059 -1351.03
C          1.10290       -0.08330        0.16930
C          2.42370       -0.04000       -0.02130
C          3.28830        1.19040        0.02330
O          4.62100        0.70290       -0.26650
C          4.55240       -0.64770       -0.44850
N          5.60500       -1.31970       -0.71960
N          3.27380       -1.06170       -0.29810
H          0.55270       -1.01670        0.11650
H          0.53720        0.81820        0.38190
H          3.29840        1.65430        1.01390
H          3.01200        1.92010       -0.74320
H          5.35840       -2.30440       -0.82030
H          2.96520       -2.01370       -0.39660
