13
qm7 6818 -1365.11
C          0.93090        0.06130        0.18150
C          2.23910        0.05260       -0.07950
C          3.09980        1.22710        0.03580
N          4.33160        0.96290       -0.28830
N          4.45140       -0.34150       -0.76790
C          4.37350       -1.29190        0.33370
C          3.14210       -1.00360       -0.48840
H          0.34090       -0.84490        0.08860
H          0.41600        0.96570        0.48920
H          2.72040        2.18900        0.40560
H          4.88280       -2.23330        0.16840
H          4.46090       -0.91000        1.34390
H          2.82270       -1.70270       -1.24930
