20
qm7 6910 -1914.06
C          0.54800        0.27960        0.37010
C          1.80490        0.07520       -0.46330
C          2.91840        1.03680       -0.08950
C          3.60140        0.82230        1.25180
C          4.26180       -0.54470        1.37230
C          3.74850        1.62900       -1.21460
N          2.74400        2.43090       -0.53580
H         -0.22200       -0.44060        0.07380
H          0.14080        1.28650        0.22800
H          0.74480        0.14180        1.43640
H          1.53900        0.19270       -1.52100
H          2.14990       -0.95820       -0.35550
H          2.87800        0.95290        2.06400
H          4.37600        1.58500        1.40670
H          3.51330       -1.34190        1.42960
H          4.86540       -0.59290        2.28290
H          4.91080       -0.74840        0.51610
H          3.51940        1.35440       -2.23760
H          4.78290        1.89420       -1.03620
H          3.17190        3.08550        0.12210
