17
qm7 454 -1612.39
C          1.17540        0.09560       -0.15350
N          2.62970        0.06090       -0.05150
C          3.28330       -0.63710       -1.14690
C          3.39320        0.87490       -1.01190
C          2.73050        1.73140       -2.05550
C          4.68450        1.44770       -0.48150
H          0.78830        0.96270        0.38980
H          0.76440       -0.79990        0.32400
H          0.77580        0.12420       -1.17140
H          2.66960       -1.05720       -1.93510
H          4.13670       -1.24630       -0.87130
H          1.96410        1.19910       -2.62810
H          3.47290        2.08180       -2.78250
H          2.27080        2.61140       -1.59400
H          5.12370        0.82380        0.30530
H          4.51360        2.44500       -0.06230
H          5.42040        1.53490       -1.28790
