14
qm7 414 -1332.39
C          1.55770       -0.58290       -1.12160
C          2.20540       -0.10180       -0.05170
C          2.93030        1.21090       -0.01000
N          4.33730        0.98620        0.32770
N          5.07620        2.10110        0.54780
C          6.28350        1.84380        0.92830
H          1.04590       -1.53950       -1.07390
H          1.52110       -0.03930       -2.05940
H          2.20590       -0.67850        0.87030
H          2.46050        1.84180        0.75350
H          2.85630        1.73780       -0.96910
H          4.74450        0.40720       -0.41090
H          6.97460        2.67410        1.13940
H          6.67720        0.82170        1.06630
