10
qm7 39 -980.82
C          0.99840       -0.00490       -0.00740
C          2.50170        0.03440        0.00510
C          3.22550       -1.28470       -0.00530
O          3.11880        1.09880        0.01820
H          0.60230        1.01430        0.00060
H          0.63800       -0.53030        0.88070
H          0.65220       -0.51120       -0.91270
H          2.51220       -2.11380        0.01770
H          3.86720       -1.35220        0.87740
H          3.82380       -1.36180       -0.91710
