13
qm7 5516 -1350.18
N          1.03900       -0.05580       -0.02010
C          2.37510        0.04730       -0.00630
C          3.19670        1.14930        0.00060
C          4.53330        0.67750        0.01310
C          4.49200       -0.69870        0.01270
O          5.48600       -1.57830        0.02120
N          3.16890       -1.06900        0.00080
H          0.44790        0.77180        0.00320
H          0.52920       -0.93250        0.01410
H          2.87690        2.18220       -0.00350
H          5.43470        1.27510        0.02050
H          5.12690       -2.48020        0.01540
H          2.81910       -2.01310       -0.00440
