16
qm7 2051 -1618
N          0.99730       -0.28280       -0.00950
C          2.43330       -0.02570       -0.02860
C          2.80900        1.43980        0.01610
C          1.92450        2.45350        0.09280
C          4.29820        1.71990        0.02810
C          4.92710        1.31540       -1.23910
C          5.45000        0.97680       -2.26550
H          0.84570       -1.28950       -0.02980
H          0.59880        0.07430       -0.87670
H          2.84700       -0.48750       -0.93180
H          2.88250       -0.53070        0.83410
H          0.85360        2.27820        0.12610
H          2.24520        3.48930        0.14280
H          4.75970        1.18450        0.86620
H          4.49400        2.78570        0.19990
H          5.91360        0.67320       -3.17620
