17
qm7 2789 -1725.26
C          0.97210       -0.12000       -0.14470
C          2.47480       -0.01090       -0.03100
C          3.14490       -1.36530       -0.01200
C          3.13200        1.17170        0.04210
C          2.49490        2.53330        0.11800
C          4.62930        1.22520        0.04170
O          5.25630        2.27190        0.16540
H          0.48170        0.81710       -0.41540
H          0.54750       -0.47130        0.80120
H          0.70770       -0.83890       -0.92870
H          2.48270       -2.11680        0.43350
H          4.05510       -1.37830        0.59380
H          3.38260       -1.68460       -1.03150
H          1.42620        2.50140        0.34070
H          2.63050        3.06760       -0.82810
H          2.94890        3.12770        0.91910
H          5.15910        0.27260       -0.10080
