20
qm7 1392 -1920.55
C          3.33110       -1.25050        0.06550
C          2.57880       -0.09830        0.72130
C          3.08890        1.28580        0.28250
N          2.26010        2.33190        0.88040
C          4.51520        1.52910        0.69030
C          5.51770        1.76160       -0.17390
C          6.93380        2.00240        0.23590
H          2.87760       -2.20460        0.35150
H          4.37920       -1.27460        0.37720
H          3.29480       -1.17170       -1.02510
H          2.64620       -0.20680        1.81230
H          1.51600       -0.19300        0.46150
H          2.99180        1.36700       -0.80720
H          2.22810        2.20440        1.88990
H          1.30110        2.22380        0.55590
H          4.72790        1.51000        1.75630
H          5.31350        1.79220       -1.24140
H          7.06610        1.95010        1.32140
H          7.25610        2.99230       -0.10050
H          7.58630        1.25310       -0.22320
