15
qm7 3542 -1515.87
O          0.89700        0.03370        0.12260
C          2.33070        0.03450        0.02380
C          3.06300        1.03800        0.93920
C          4.11720       -0.05650        1.22860
C          3.05840       -1.09450        0.78430
C          5.43730       -0.00070        0.42270
O          5.54260       -0.01560       -0.80420
H          0.60610       -0.68010       -0.47100
H          2.64480        0.11580       -1.02430
H          2.48890        1.34360        1.82220
H          3.43580        1.93620        0.43810
H          4.34400       -0.13450        2.30100
H          3.42670       -1.91270        0.15860
H          2.48260       -1.52180        1.61410
H          6.34750        0.04970        1.04310
