16
qm7 5564 -1567.66
N          0.92930        0.08910        0.14920
C          2.38370        0.08700       -0.06290
C          3.07370        1.04790        0.91460
O          3.98270       -0.00630        1.34250
C          3.06980       -1.00920        0.79050
C          3.67310       -2.12030        0.00510
C          4.98230       -2.17680       -0.26370
H          0.45280       -0.68640       -0.31080
H          0.47050        0.93480       -0.18840
H          2.70750        0.17600       -1.10410
H          2.48700        1.42110        1.76050
H          3.61150        1.87630        0.44560
H          2.45600       -1.41770        1.60570
H          3.00650       -2.90370       -0.34160
H          5.67230       -1.41110        0.08090
H          5.39920       -3.00250       -0.83210
