15
qm7 2498 -1615.95
C          0.77770        0.01880       -0.15160
C          2.27050       -0.01460       -0.21150
C          3.06120        0.88500        0.39200
C          4.50370        0.83180        0.31960
C          5.29870        1.72810        0.92060
C          6.71370        1.64240        0.82640
C          7.90960        1.57360        0.74940
H          0.40240       -0.90640        0.29620
H          0.36650        0.10400       -1.16200
H          0.40500        0.86050        0.44070
H          2.70540       -0.82930       -0.78630
H          2.61630        1.69640        0.96470
H          4.94650        0.01920       -0.25390
H          4.88400        2.54860        1.49880
H          8.97060        1.51180        0.68050
