21
qm7 5382 -2044.98
C          1.16790        0.28390        0.11200
C          2.67290       -0.02770       -0.00150
C          3.07100       -0.92200        1.18530
C          2.92020       -0.81130       -1.30510
C          3.43340        1.28990       -0.07920
C          3.88790        2.05550        1.13990
C          4.90440        1.40730        0.23880
H          0.82140        0.88550       -0.73610
H          0.95250        0.85250        1.02390
H          0.57020       -0.63400        0.13710
H          2.87930       -0.43270        2.14550
H          4.13030       -1.19530        1.15340
H          2.49710       -1.85620        1.18080
H          2.61750       -0.22820       -2.18240
H          2.35930       -1.75230       -1.31860
H          3.98310       -1.05040       -1.42400
H          3.08060        1.89060       -0.91600
H          3.74770        1.63690        2.12820
H          3.80580        3.13700        1.11460
H          5.50610        2.05280       -0.39250
H          5.44520        0.54940        0.61700
