12
qm7 6200 -1326.49
O          1.96720       -1.22160        0.05740
C          1.79220       -0.01450       -0.07500
C          2.87550        1.04010        0.04130
C          4.25230        0.44820       -0.01120
C          5.02550        0.25100        1.06850
C          6.32790       -0.31370        0.97610
N          7.39630       -0.75830        0.90540
H          0.77770        0.38400       -0.24840
H          2.70520        1.59460        0.97020
H          2.75600        1.74090       -0.79160
H          4.61640        0.15920       -0.99700
H          4.67680        0.50820        2.06260
