9
qm7 32 -871.86
N          1.01470       -0.01520        0.01820
C          2.47000        0.00000        0.00000
C          2.95200        1.36120        0.00000
C          3.34930        2.48310        0.00000
H          0.69120       -0.97620       -0.07440
H          0.66950        0.48570       -0.79910
H          2.82660       -0.53200       -0.88840
H          2.84460       -0.53970        0.87560
H          3.69790        3.48910        0.00620
