19
qm7 1241 -1814
C          0.98700       -0.15960        0.04340
C          2.50510       -0.08190        0.01860
C          2.99170        1.36620        0.01040
C          4.51620        1.43990       -0.02320
C          4.97020        2.88270       -0.02870
N          5.15940        3.52160       -1.21180
N          5.14880        3.54070        1.06890
H          0.66110       -1.20440        0.05070
H          0.55510        0.32470       -0.83830
H          0.58350        0.32860        0.93620
H          2.87730       -0.60510       -0.86990
H          2.90640       -0.60430        0.89490
H          2.61560        1.88890        0.89880
H          2.57730        1.89170       -0.85910
H          4.90380        0.94260       -0.91980
H          4.94470        0.93430        0.84960
H          4.60300        3.22030       -2.00150
H          5.21470        4.52900       -1.10170
H          4.96560        2.94050        1.87980
