12
qm7 7066 -1354.98
C          0.98750        0.19720        0.13970
C          2.31520        0.05980       -0.03260
C          2.98690       -1.28870       -0.05320
C          3.38560       -1.64900       -1.42240
C          3.71480       -1.94500       -2.53900
C          3.13380        1.22520       -0.15240
N          3.79550        2.17520       -0.23360
H          0.51420        1.17580        0.16890
H          0.33620       -0.66530        0.24630
H          2.31640       -2.06130        0.34320
H          3.86360       -1.27820        0.60600
H          4.00960       -2.20270       -3.53060
