12
qm7 1844 -1227.88
C          1.88040       -0.35540       -0.55720
N          2.56390        0.72600       -0.73650
N          2.91720        1.28930        0.43860
C          4.22590        1.90860        0.23320
C          2.98020        2.74740        0.22400
C          2.73240        3.62570        1.33130
N          2.54620        4.35260        2.21760
H          1.52370       -0.92330       -1.43090
H          1.62200       -0.76150        0.43730
H          4.73850        1.73190       -0.70500
H          4.86920        1.92680        1.10440
H          2.63460        3.11480       -0.73660
