16
qm7 1928 -1656.46
N          0.91150       -0.06200        0.22090
C          2.37010       -0.00550        0.07980
C          2.80060        1.32450       -0.60540
C          3.89350        1.19620       -1.63150
C          4.32130        0.01120       -2.08580
C          3.75230       -1.22490       -1.60990
C          2.85160       -1.24820       -0.61650
H          0.58510        0.78030        0.69080
H          0.66280       -0.84210        0.82530
H          2.79590       -0.01420        1.09210
H          3.12800        2.02310        0.17330
H          1.94450        1.80060       -1.09770
H          4.32120        2.11250       -2.02760
H          5.09560       -0.04840       -2.84330
H          4.08190       -2.14500       -2.07670
H          2.46930       -2.20410       -0.27390
