14
qm7 5200 -1455.26
C          3.04200       -1.28570       -0.00150
N          2.42950        0.01780        0.00040
C          3.09280        1.21430       -0.00000
O          2.48810        2.27990       -0.00050
C          4.53880        1.20940        0.00000
C          5.72890        1.20940        0.00000
C          7.17300        1.20940        0.00000
H          2.25370       -2.04190        0.00280
H          3.66670       -1.39580        0.88890
H          3.65780       -1.39680       -0.89800
H          1.42120        0.10170       -0.00150
H          7.56720        2.23020       -0.01170
H          7.56670        0.68870       -0.87820
H          7.56670        0.70900        0.89000
