16
qm7 3949 -1578.77
C          1.07450       -0.17750        0.08630
C          2.55670       -0.04220       -0.00300
C          3.34720       -0.66930       -1.13390
C          2.66700       -1.33830       -2.26420
O          2.53210       -2.55630       -2.27840
N          3.13050        0.78210       -1.06250
C          4.31720        1.52060       -0.63980
H          0.66880        0.59110        0.75190
H          0.81190       -1.15580        0.50030
H          0.58030       -0.07280       -0.88490
H          3.01530       -0.02480        0.97970
H          4.33410       -1.05500       -0.90270
H          2.30420       -0.69980       -3.08580
H          4.01540        2.47240       -0.19110
H          4.93720        1.74700       -1.51320
H          4.94400        0.99100        0.08780
