22
qm7 1520 -2050.09
C          2.74270       -1.21800       -0.38600
C          2.47090       -0.22990        0.74400
N          3.14120        1.06820        0.55220
C          2.53330        2.10980        1.39820
C          2.70610        1.94440        2.90570
C          4.60250        0.95840        0.68900
C          5.35320        2.26290        0.43290
H          2.10500       -2.10100       -0.26790
H          3.78010       -1.56490       -0.38770
H          2.52110       -0.77390       -1.36210
H          2.75060       -0.68570        1.70160
H          1.38420       -0.07720        0.76890
H          1.45930        2.16320        1.17550
H          2.91630        3.09330        1.10150
H          2.25280        1.01590        3.26550
H          2.21360        2.77280        3.42590
H          3.75970        1.95380        3.19890
H          4.98030        0.24340       -0.04980
H          4.88130        0.56780        1.67480
H          5.05660        2.71020       -0.52160
H          6.43060        2.06960        0.39050
H          5.18560        2.99380        1.22990
