14
qm7 148 -1323.74
C          1.03990       -0.00760       -0.07080
C          2.52620        0.04600        0.01380
N          3.33740       -0.64130       -0.99080
C          3.33290        0.82000       -1.00010
C          4.56510        1.54830       -0.58810
H          0.60050        0.73410        0.60360
H          0.67880       -0.99640        0.23020
H          0.67450        0.19680       -1.08190
H          2.88820       -0.02520        1.03310
H          2.75700       -1.01160       -1.74560
H          2.82770        1.29780       -1.83150
H          5.08660        1.05070        0.23650
H          4.30880        2.56200       -0.26460
H          5.25740        1.62620       -1.43150
