13
qm7 3172 -1401.02
C          0.87180        2.24640        0.09080
C          2.16560        2.18600       -0.22770
O          2.95310        1.12360        0.13910
C          4.33760        1.16830        0.00000
C          5.00910        0.01300       -0.07390
C          5.04050        2.38590        0.00000
C          5.63570        3.41660        0.00000
H          0.26000        3.08520       -0.22170
H          0.40340        1.45880        0.67170
H          2.65510        2.94960       -0.81600
H          4.47930       -0.93320       -0.05120
H          6.08980       -0.01710       -0.16060
H          6.16860        4.33870        0.00340
