13
qm7 3617 -1385.39
O          1.04900       -0.19580        0.13520
C          2.25580       -0.06740        0.07310
O          3.17260       -1.09400        0.11690
C          4.44390       -0.37300        0.00400
C          4.31500        0.72880       -1.12760
C          3.23170        1.19200       -0.07070
C          4.40410        0.89710        0.95090
H          5.32560       -1.01360        0.01810
H          3.92700        0.38120       -2.08870
H          5.17380        1.38800       -1.29180
H          2.80890        2.19000       -0.13330
H          5.26920        1.56820        0.93360
H          4.10150        0.71090        1.98480
