19
qm7 3107 -1789.35
C          1.38520       -0.50090        1.77020
C          1.82600       -0.87700        0.36030
C          2.29270       -2.32860        0.32360
O          0.69690       -0.68550       -0.49770
C          1.04350       -0.60930       -1.88650
C         -0.24280       -0.40350       -2.68120
O         -0.87280        0.80990       -2.27500
H          1.07410        0.54990        1.80360
H          2.19280       -0.64500        2.49480
H          0.51880       -1.09510        2.08510
H          2.64210       -0.20900        0.06110
H          1.44890       -3.01590        0.45750
H          3.03900       -2.52900        1.09980
H          2.74710       -2.57050       -0.64250
H          1.53240       -1.53170       -2.21240
H          1.71580        0.24290       -2.03510
H         -0.94820       -1.21940       -2.49860
H         -0.03450       -0.34430       -3.75310
H         -0.88540        0.77380       -1.29880
