18
qm7 4625 -1746.71
C          1.19740        0.31270        0.39480
C          2.41410        0.13040       -0.49870
C          3.66150       -0.24830        0.28650
O          3.62690       -0.38520        1.50940
N          4.83120       -0.43650       -0.44730
C          4.98620       -0.07680       -1.84860
C          6.06120       -0.69000        0.28570
H          0.32220        0.58210       -0.20450
H          1.36540        1.10610        1.13060
H          0.96790       -0.60860        0.94020
H          2.60160        1.06880       -1.03120
H          2.20260       -0.66190       -1.22470
H          4.03950       -0.09740       -2.38980
H          5.66960       -0.78410       -2.32780
H          5.40550        0.93200       -1.90300
H          5.86490       -1.14710        1.25900
H          6.57820        0.26190        0.43760
H          6.69670       -1.36580       -0.29400
