17
qm7 4776 -1614.65
C          1.18230       -0.49470       -0.34230
C          2.63260       -0.45910        0.08010
N          3.20680       -1.53920        0.50100
N          3.28590        0.74240        0.03860
C          4.73790        0.88570        0.09140
C          5.30390        0.59710        1.48730
O          5.45530       -0.79960        1.72250
H          0.96620        0.31370       -1.04620
H          0.55100       -0.37700        0.54290
H          0.95120       -1.45010       -0.82230
H          2.54750       -2.32720        0.47090
H          2.81260        1.50070       -0.44130
H          4.97370        1.92350       -0.16880
H          5.19980        0.23790       -0.66160
H          4.66870        1.01630        2.27440
H          6.29990        1.04220        1.57840
H          4.63330       -1.21620        1.36330
