15
qm7 1473 -1531.07
C          1.13480       -0.10550       -0.58620
C          2.36990        0.10900       -0.12250
N          3.02960        1.29790        0.08920
C          4.38850        1.38190        0.60000
C          4.62190        2.89940        0.66460
N          3.39750        3.56830        0.14340
C          2.60370        2.57530       -0.12950
H          0.75650       -1.11670       -0.69590
H          0.47170        0.70470       -0.86610
H          2.97970       -0.75400        0.14020
H          5.10160        0.90470       -0.08120
H          4.47830        0.92670        1.59160
H          5.48700        3.18880        0.05870
H          4.80310        3.22270        1.69570
H          1.59070        2.70840       -0.53730
