16
qm7 4976 -1604.52
C          1.04640        0.00890       -0.02730
N          2.49670       -0.02000        0.08630
C          3.02170        1.07880        0.90580
C          4.45810        0.67550        1.21500
C          4.29850       -0.81150        1.32630
O          5.12240       -1.55770        1.84020
C          2.98380       -1.25590        0.72020
H          0.69580       -0.82100       -0.65130
H          0.71970        0.93480       -0.51360
H          0.54850       -0.06020        0.94710
H          2.45680        1.18350        1.84160
H          2.98610        2.03490        0.37350
H          5.13640        0.90410        0.38900
H          4.81180        1.10850        2.15400
H          3.14980       -2.03940       -0.02310
H          2.33380       -1.60340        1.53150
