13
qm7 3513 -1370.32
O          1.25400        0.00400        1.00880
C          2.52340       -0.00660        0.32900
C          2.56520        0.69290       -1.00190
O          3.86880        1.12780       -1.53150
C          4.49820       -0.06210       -1.89200
C          3.82440       -1.16570       -1.57210
C          2.55470       -0.83130       -0.93170
H          0.95380        0.91530        1.17370
H          3.41640        0.02670        0.94530
H          1.67640        1.20060       -1.35870
H          5.45580        0.05070       -2.37040
H          4.15240       -2.17750       -1.76300
H          1.66600       -1.35200       -1.25590
