14
qm7 513 -1341.6
C          1.29250       -0.37710       -0.25090
N          2.73910       -0.19630       -0.22080
N          3.16060        1.08680       -0.10230
C          4.44770        1.21370       -0.12640
C          5.08710        2.53960        0.00030
C          6.41890        2.65200       -0.01180
H          1.05420       -1.43600       -0.38770
H          0.84900        0.17830       -1.08320
H          0.83600       -0.03840        0.68460
H          3.12770       -0.78820        0.51730
H          5.12830        0.34980       -0.24350
H          4.42940        3.39510        0.10050
H          7.07510        1.79300       -0.11390
H          6.88620        3.62760        0.08070
