15
qm7 5176 -1494.2
C          0.79910        0.20210        0.13000
N          2.23980        0.17740       -0.11340
C          2.81210        1.30600        0.06820
N          4.15340        1.37450       -0.14080
C          4.89620        2.52020        0.01940
C          6.36340        2.34470       -0.27020
O          4.43270        3.60110        0.37120
H          0.30250       -0.44820       -0.59640
H          0.35780        1.20040        0.03090
H          0.58350       -0.18170        1.13200
H          2.32210        2.24320        0.38440
H          4.58360        0.50760       -0.42820
H          6.59250        1.33430       -0.61960
H          6.93220        2.53570        0.64360
H          6.66080        3.05490       -1.04640
