14
qm7 5977 -1492.35
O          0.88830       -0.17950        0.01170
C          2.11510       -0.08680       -0.00310
C          2.80810        1.25790       -0.05590
C          4.33490        1.24120       -0.03430
C          4.96650       -0.11120       -0.01470
C          4.25260       -1.23630        0.00980
N          2.89180       -1.21050        0.01840
H          2.44350        1.84670        0.79410
H          2.46660        1.76250       -0.96750
H          4.68630        1.80140        0.84130
H          4.70900        1.78810       -0.90900
H          6.05170       -0.16210       -0.01750
H          4.71940       -2.21740        0.02780
H          2.37450       -2.08180        0.04490
