18
qm7 4185 -1716.78
C          1.01160        0.13410        0.12120
C          2.50330       -0.08120       -0.03450
O          3.25330        0.96100        0.64260
C          4.06750       -0.03080        1.31160
C          3.14580       -1.16670        0.85170
C          3.78200       -2.31840        0.09650
N          4.48770       -3.20910        1.01370
H          0.45650       -0.71970       -0.28000
H          0.69230        1.02860       -0.42310
H          0.72970        0.25940        1.17190
H          2.79700       -0.12470       -1.09120
H          5.08610       -0.03750        0.91090
H          4.09820        0.13310        2.39290
H          2.47650       -1.51290        1.65160
H          4.47670       -1.96100       -0.67120
H          3.00170       -2.89490       -0.41250
H          5.31400       -2.74270        1.38730
H          4.83750       -4.01660        0.49700
