18
qm7 3901 -1719.14
C          0.97880       -0.10140        0.31320
C          2.38640        0.17880       -0.17240
C          3.20980        1.18390        0.63600
C          4.11080       -0.01270        0.97190
C          5.54470        0.00700        0.44270
N          6.35590        1.01960        1.12380
O          3.28110       -0.90510        0.17800
H          0.54410       -0.94530       -0.23200
H          0.33640        0.76960        0.15090
H          0.96060       -0.34280        1.38090
H          2.41920        0.36300       -1.25320
H          2.70430        1.62700        1.49860
H          3.66920        1.97480        0.03680
H          4.06470       -0.30460        2.02910
H          5.55950        0.20010       -0.63600
H          6.00400       -0.97440        0.60530
H          6.04580        1.94960        0.84470
H          7.31960        0.94090        0.79910
