11
qm7 4745 -1214
C          0.69430        0.39260       -0.21170
C          1.96960        0.13280        0.11450
N          2.38570       -1.17600        0.20620
C          3.63650       -1.63220        0.52360
O          3.89980       -2.82730        0.57720
C          2.87590        1.21580        0.36160
N          3.62230        2.08140        0.56470
H          0.32860        1.41310       -0.29380
H         -0.02570       -0.39590       -0.40710
H          1.72000       -1.91840        0.02530
H          4.38750       -0.85340        0.72690
