14
qm7 3814 -1426.2
C          0.75150       -0.07010        0.02650
C          2.16860        0.43140       -0.01590
C          1.02570        1.38890       -0.20610
C          0.69670        2.42300        0.79070
C          0.33630        3.53050       -0.13110
N          0.39480        3.25810       -1.39190
O          0.81450        1.90610       -1.53640
H          0.35200       -0.37750        0.98510
H          0.39470       -0.65620       -0.81260
H          2.76930        0.18630       -0.88520
H          2.72500        0.46400        0.91270
H          1.54260        2.72430        1.41390
H         -0.16530        2.17470        1.41480
H          0.03810        4.51270        0.26110
