17
qm7 2341 -1727.44
C          1.05940       -0.05460        0.05380
C          2.57600        0.00470        0.06630
C          3.11650        1.18020        0.86470
C          4.50620        0.70660        1.21450
C          4.26060       -0.76090        1.33820
C          5.00660       -1.62120        2.03480
O          3.10060       -1.17610        0.70000
H          0.71860       -0.92720       -0.51350
H          0.63110        0.84550       -0.39690
H          0.66050       -0.16640        1.06790
H          2.95440        0.03000       -0.96390
H          2.53480        1.33320        1.78310
H          3.10960        2.11680        0.29950
H          5.20590        0.90640        0.39600
H          4.87770        1.16690        2.13410
H          4.73130       -2.66930        2.08970
H          5.89930       -1.30160        2.56000
