18
qm7 1616 -1770.08
C          1.11240        0.01530        0.02260
N          2.56730        0.00550       -0.03740
C          3.16520        1.00770       -1.00250
C          2.78890        0.03090       -2.15370
C          3.16410       -0.97050       -1.02910
C          4.67280       -0.75320       -0.86480
C          4.67380        0.78650       -0.84530
H          0.79960        0.75520        0.76670
H          0.74880       -0.95750        0.36870
H          0.58380        0.26310       -0.90110
H          2.76540        2.02170       -1.00500
H          3.42970        0.04210       -3.04290
H          1.75520        0.02390       -2.50870
H          2.76600       -1.98410       -1.05640
H          5.05670       -1.17570        0.07020
H          5.24760       -1.15590       -1.70470
H          5.24720        1.20900       -1.67620
H          5.05880        1.18510        0.09860
