15
qm7 4861 -1470.45
C          2.08390       -0.14260       -0.07250
C          0.82870       -0.91350        0.21200
C         -0.40130       -1.39290       -0.46430
C         -1.54480       -0.43770       -0.09850
N         -1.40600        0.74960        0.44160
N         -0.13310        1.17450        0.77470
C          0.81220        0.58400       -0.16230
H          2.61550       -0.37220       -0.98890
H          2.74050        0.08920        0.75860
H          0.76090       -1.19950        1.26380
H         -0.67360       -2.39550       -0.11900
H         -0.30210       -1.42720       -1.55440
H         -2.56210       -0.76730       -0.36590
H         -0.09570        2.19590        0.79560
H          0.62330        0.90510       -1.18980
