19
qm7 6711 -1804.84
C          1.01120       -0.01740        0.00940
C          2.53020       -0.01770        0.05010
C          3.10240        1.13970        0.85430
C          4.50770        0.66410        1.19570
N          5.46010        1.01790        0.13290
C          4.33280       -0.85930        1.33610
N          3.03730       -1.21030        0.73930
H          0.63640       -0.86670       -0.57170
H          0.63860        0.90110       -0.45560
H          0.58030       -0.08250        1.01490
H          2.92190        0.00820       -0.97480
H          2.53340        1.29360        1.78090
H          3.08750        2.08350        0.29840
H          4.85270        1.11490        2.13210
H          5.19260        0.55020       -0.73290
H          6.38030        0.64890        0.37180
H          5.15020       -1.41910        0.86830
H          4.31320       -1.13710        2.39570
H          3.13730       -1.98390        0.08390
