17
qm7 2930 -1691.77
C          0.95200       -0.04420        0.05550
C          2.48230       -0.03950       -0.04780
C          2.90960       -0.83910       -1.28340
C          3.03440        1.40250       -0.07490
O          2.53820        2.12850        1.04780
C          4.50590        1.43720       -0.02920
C          5.70610        1.47420        0.01350
H          0.61420        0.43500        0.98000
H          0.56610       -1.06930        0.05980
H          0.49720        0.48500       -0.78870
H          2.86610       -0.55340        0.84410
H          2.56790       -0.35550       -2.20500
H          2.48730       -1.84950       -1.25650
H          3.99770       -0.94350       -1.33700
H          2.68020        1.91960       -0.97370
H          2.97520        1.76090        1.83470
H          6.76980        1.51240        0.04920
