17
qm7 468 -1615.68
C          2.87490       -1.10850       -0.47100
N          2.36100        0.10940        0.14060
C          3.35740        1.18350        0.16090
C          3.46480        2.10920       -1.02110
C          2.87160        2.60510        0.26850
C          3.61130        3.59140        1.10510
H          2.09130       -1.87230       -0.48260
H          3.72850       -1.50540        0.08820
H          3.18080       -0.93140       -1.50730
H          2.04550       -0.09850        1.08780
H          4.28390        0.94300        0.67970
H          2.79280        1.95360       -1.85750
H          4.45320        2.44870       -1.30700
H          1.80220        2.78150        0.29200
H          4.69390        3.42730        1.07770
H          3.28320        3.52200        2.14720
H          3.41280        4.60860        0.75230
