19
qm7 3085 -1844.17
C          1.07200       -0.85030       -0.69710
C          1.97300       -0.36570        0.43070
C          2.60250        0.97420        0.13020
O          1.75000        2.01200       -0.20580
C          0.95790        2.43820        0.90060
C          3.93370        1.14880        0.08270
C          4.63070        2.42530       -0.26230
H          0.65790       -1.83390       -0.45230
H          1.62830       -0.94150       -1.63650
H          0.23240       -0.16640       -0.86240
H          2.74890       -1.12190        0.60040
H          1.39940       -0.30600        1.36160
H          0.40950        3.33340        0.59450
H          1.58720        2.69870        1.75800
H          0.22520        1.67570        1.17990
H          4.58700        0.30890        0.30620
H          3.93960        3.24710       -0.47050
H          5.25800        2.27710       -1.14690
H          5.27640        2.72940        0.56770
