19
qm7 2880 -1847.05
C          0.64430        0.47350       -0.99800
C          1.87340       -0.25900       -0.48010
C          3.02920        0.71110       -0.22100
C          4.26300        0.01380        0.30760
C          4.73290        0.27350        1.53830
O          4.82760       -0.85030       -0.60630
C          6.02050       -1.53060       -0.23370
H         -0.16430       -0.23600       -1.19950
H          0.86790        1.00650       -1.92780
H          0.28290        1.20050       -0.26370
H          2.17080       -1.01630       -1.21520
H          1.61290       -0.79030        0.44310
H          2.69680        1.48640        0.48100
H          3.29260        1.23030       -1.15100
H          4.22750        0.98160        2.18890
H          5.62090       -0.19290        1.94570
H          6.31150       -2.18080       -1.06410
H          5.85590       -2.16230        0.64520
H          6.83590       -0.82060       -0.05990
