15
qm7 1606 -1476.52
C          0.91400       -0.26560       -0.52050
C          2.17430       -0.41970        0.31500
N          2.87180        0.86410        0.42090
N          4.02650        0.83380        1.13530
C          4.67380        1.94690        1.11570
C          5.88340        1.89060        1.88650
C          6.89730        1.84650        2.53090
H          0.39510       -1.22630       -0.60030
H          1.15020        0.07570       -1.53400
H          0.22280        0.45370       -0.06830
H          2.83080       -1.16180       -0.15290
H          1.90880       -0.78480        1.31360
H          2.22110        1.56210        0.79060
H          4.38890        2.87200        0.58970
H          7.79370        1.79410        3.10290
