14
qm7 1808 -1399.98
C          0.97950       -0.06670        0.14240
N          2.43220        0.04280        0.17060
C          3.15330       -1.21280       -0.03830
C          3.05600        1.25900       -0.05500
N          2.52780        2.43420       -0.04880
C          4.49050        1.32680       -0.34460
N          5.62990        1.31190       -0.57740
H          0.52270        0.63790        0.84490
H          0.63930       -1.06590        0.43490
H          0.60190        0.14040       -0.86420
H          2.59640       -2.06660        0.36250
H          4.11950       -1.20330        0.47670
H          3.31840       -1.38360       -1.10710
H          1.53500        2.37330        0.17120
