15
qm7 1851 -1493.75
C          4.48570       -1.89360       -0.96020
N          3.98030       -0.81870       -0.45620
N          4.91100        0.21470       -0.47920
C          4.40990        1.29070        0.02750
C          5.27120        2.48880        0.08700
C          5.48860        3.31780       -1.15520
C          4.66040        3.86390       -0.02960
H          3.87880       -2.80980       -1.01830
H          5.51770       -1.95030       -1.34650
H          3.38170        1.35930        0.42280
H          6.11890        2.38660        0.75820
H          4.98260        3.01830       -2.06640
H          6.47610        3.73490       -1.31510
H          5.08440        4.65850        0.57390
H          3.59090        3.94990       -0.18620
