15
qm7 3641 -1588.13
O          2.71350       -0.63550       -1.19640
C          2.28930        0.01470       -0.01000
C          2.82630        1.39500       -0.00350
C          2.15060        2.55290        0.10660
C          3.08210        3.65300        0.08720
C          4.33010        3.17810       -0.03370
C          4.30030        1.67890       -0.11060
H          2.28540       -1.50730       -1.20490
H          2.66400       -0.54530        0.85230
H          1.19510        0.01230        0.01860
H          1.08240        2.66890        0.19890
H          2.79690        4.69220        0.15820
H          5.22890        3.77430       -0.07860
H          4.71170        1.33030       -1.06250
H          4.85450        1.23380        0.72140
