15
qm7 3703 -1498.65
O          1.35700       -0.05670        0.50820
C          2.63260       -0.08270       -0.12750
C          2.47560       -0.39490       -1.59430
C          1.32770       -0.59600       -2.25500
C          3.37940        1.19510        0.14280
C          2.70460        2.49070        0.52220
O          3.30840        1.64180        1.50870
H          1.53370        0.21340        1.42840
H          3.19550       -0.90750        0.32620
H          3.40500       -0.48400       -2.15160
H          0.36660       -0.53750       -1.75120
H          1.32540       -0.83490       -3.31250
H          4.34640        1.23560       -0.34230
H          1.62200        2.54980        0.49990
H          3.20830        3.42140        0.29050
