18
qm7 6854 -1791.4
C          0.99580        0.06800        0.05000
C          2.51860       -0.00790        0.03480
N          3.10310        1.09590        0.82600
C          4.45770        0.62670        1.15120
C          4.30950       -0.85550        1.46720
C          3.11510       -1.24900        0.64770
C          2.66260       -2.50600        0.54610
H          0.55890       -0.70120       -0.59560
H          0.65180        1.03970       -0.32120
H          0.59140       -0.07010        1.05900
H          2.87500        0.08710       -0.99880
H          2.57040        1.17560        1.69240
H          5.11610        0.77840        0.28690
H          4.88120        1.18320        1.99310
H          5.20910       -1.41230        1.18820
H          4.09860       -1.00180        2.53250
H          1.78580       -2.75110       -0.04430
H          3.16440       -3.32550        1.05160
