14
qm7 4880 -1362.61
C          0.84950        0.34820        0.73950
C          1.80020        1.32330        0.10910
O          2.38840        0.99010       -1.07320
C          2.00400       -0.14330       -1.79760
C          2.89520       -0.89230       -2.44930
N          2.04690        2.45130        0.70630
O          2.95850        3.22160       -0.03010
H          0.59470        0.67860        1.75160
H          1.31070       -0.64010        0.81560
H         -0.07470        0.29500        0.15820
H          0.93700       -0.30840       -1.82810
H          3.95350       -0.65520       -2.41270
H          2.58300       -1.74730       -3.03800
H          3.05580        4.01900        0.52170
