16
qm7 628 -1551.14
C          0.94930       -0.00950        0.05390
C          2.46320        0.01310        0.00910
C          3.16790        1.05310        0.91360
C          4.23490       -0.01940        1.22870
O          5.44680        0.03310        0.45040
C          3.19690       -1.08660        0.81500
H          0.56140       -0.86920       -0.50130
H          0.53780        0.89740       -0.40000
H          0.57590       -0.07330        1.08100
H          2.81960        0.06630       -1.02950
H          2.59210        1.36400        1.79320
H          3.52890        1.94680        0.39670
H          4.49630       -0.06450        2.29120
H          5.16330        0.07000       -0.47880
H          3.58130       -1.91900        0.21880
H          2.63100       -1.49220        1.66180
