17
qm7 6563 -1581.87
C          1.52000        1.97100        0.09350
C          1.82160        0.57820       -0.43110
N          3.17970        0.15910       -0.11120
C          3.60160       -0.46480        1.02660
S          2.65140       -0.91820        2.32080
N          4.93070       -0.75790        1.08580
C          5.93580       -0.58540        0.06210
H          0.50690        2.27210       -0.19000
H          2.22280        2.70270       -0.31790
H          1.59630        2.01440        1.18410
H          1.73890        0.56960       -1.52320
H          1.10150       -0.14520       -0.03700
H          3.89470        0.49190       -0.73870
H          5.20570       -1.24090        1.93440
H          5.61560       -1.09360       -0.85130
H          6.87450       -1.01630        0.41830
H          6.06860        0.48120       -0.13530
