15
qm7 2297 -1568.85
C          1.08840        0.12600        0.25220
C          2.37780       -0.08110       -0.03890
C          3.01690       -1.45050       -0.12040
C          4.19550       -1.25890       -1.09060
C          4.55840        0.18950       -0.97530
O          3.81390        1.10240       -1.78030
C          3.36960        0.93610       -0.42650
H          0.66890        1.12780        0.24850
H          0.42120       -0.69700        0.48640
H          2.33440       -2.23020       -0.46910
H          3.39540       -1.72820        0.87130
H          5.03230       -1.91130       -0.82470
H          3.89210       -1.49470       -2.11680
H          5.55530        0.42690       -0.64430
H          3.54870        1.74090        0.27580
