14
qm7 607 -1418.62
C          1.03730       -0.03280       -0.04410
C          2.52790       -0.03230       -0.02180
C          3.30130       -0.66230       -1.14870
C          3.30100        0.83980       -0.98460
C          4.53730        1.52680       -0.54760
O          5.36590        1.90680       -1.36450
H          0.65220        0.78370        0.57460
H          0.65530       -0.97590        0.35910
H          0.63970        0.09060       -1.05690
H          2.91140       -0.16750        0.98360
H          2.75880       -1.07440       -1.99250
H          4.20800       -1.20630       -0.90640
H          2.73540        1.40240       -1.72130
H          4.66500        1.68660        0.53550
