13
qm7 3602 -1339.89
O          0.82850       -0.03860        0.22260
C          2.26300       -0.01280        0.02120
C          3.04920        1.01630        0.86290
O          3.46990       -0.01850        1.79350
C          3.08210       -1.03950        0.83390
C          2.52470        0.01150       -1.40280
C          2.73850        0.03160       -2.58480
H          0.72090       -0.05400        1.19000
H          2.44040        1.77650        1.36130
H          3.91060        1.49480        0.38480
H          3.95810       -1.47650        0.34290
H          2.49810       -1.83250        1.31040
H          2.91860        0.04920       -3.63490
