13
qm7 6069 -1360.8
O          1.51330        0.03840        1.22450
C          2.37050        0.01060        0.36050
N          2.93820       -1.13120       -0.21120
C          3.93120       -0.80570       -1.19410
C          5.18930       -0.06080       -0.86310
C          3.96320        0.72670       -1.21230
N          2.98500        1.11550       -0.23780
H          2.67190       -2.05730        0.08580
H          3.84060       -1.31930       -2.14320
H          5.52880       -0.05620        0.16670
H          5.99660       -0.08610       -1.58660
H          3.89270        1.22160       -2.17220
H          2.75630        2.05850        0.03850
