21
qm7 2881 -1984.66
C          0.95050        1.80660        0.94610
C          2.46330        1.96210        0.96140
C          3.11160        1.22590       -0.21500
C          4.64260        1.36070       -0.21570
C          5.23430        0.54400       -1.36310
O          4.96000        2.74910       -0.35920
C          6.32530        3.05590       -0.11300
H          0.50570        2.33960        1.79240
H          0.66290        0.75290        1.01920
H          0.52350        2.21630        0.02490
H          2.85590        1.56960        1.90650
H          2.70970        3.02940        0.92530
H          2.70840        1.63710       -1.14920
H          2.83490        0.16520       -0.17490
H          5.03230        0.99220        0.74150
H          4.94030        0.96140       -2.33230
H          4.90970       -0.50030       -1.31520
H          6.32840        0.55350       -1.33110
H          6.42260        4.14300       -0.04850
H          6.95180        2.70910       -0.93860
H          6.66390        2.62060        0.83170
