16
qm7 4884 -1554.79
C          2.32470       -1.13330        0.77670
C          3.78300       -0.91420        0.42620
O          3.97100        0.46640        0.12220
C          5.32510        0.73790       -0.24570
C          5.55530        2.22400       -0.52090
N          4.45820        3.01830       -0.35600
O          6.63800        2.68810       -0.86210
H          2.13690       -2.18110        1.02750
H          1.68050       -0.85000       -0.06210
H          2.03390       -0.50810        1.62720
H          4.05350       -1.52610       -0.44150
H          4.41590       -1.19420        1.27550
H          5.57220        0.18600       -1.15870
H          5.99500        0.44300        0.56920
H          3.57660        2.59730       -0.08400
H          4.52770        4.01120       -0.52300
