14
qm7 4412 -1469.35
C          1.12420       -0.06240        0.62240
C          2.52000        0.00000        0.00000
C          2.47780       -0.54780       -1.43200
C          3.85560       -0.77200       -2.00500
O          4.87160       -0.86920       -1.32410
C          3.00200        1.36120        0.00000
N          3.38620        2.44620        0.00000
H          1.13420        0.32150        1.64890
H          0.75820       -1.09430        0.65490
H          0.40250        0.53480        0.05260
H          3.18550       -0.62140        0.61200
H          1.94950        0.14260       -2.10090
H          1.96030       -1.51320       -1.46910
H          3.89440       -0.91910       -3.09810
