18
qm7 1624 -1762.7
C          1.10620       -0.20690       -0.03930
N          2.56710       -0.21220       -0.05030
C          3.14080       -0.62920       -1.32590
C          3.13500        0.82670       -0.91140
C          4.40170        1.50730       -0.47550
C          5.01180        2.37970       -1.54010
C          5.18610        3.70090       -1.41760
H          0.74700        0.54880        0.66640
H          0.73990       -1.18050        0.30090
H          0.64850        0.00070       -1.01450
H          2.47350       -0.94730       -2.11730
H          4.06610       -1.18800       -1.25930
H          2.44310        1.50890       -1.39460
H          5.15250        0.76600       -0.17350
H          4.18070        2.10420        0.41900
H          5.32930        1.88460       -2.45490
H          4.88970        4.23620       -0.52020
H          5.63570        4.28020       -2.21930
