17
qm7 5437 -1668.31
C          0.98640        0.14820       -0.20580
C          2.45840        0.07990        0.01610
C          3.31890       -0.77840       -0.86570
C          3.40740        0.72960       -0.97000
C          4.60440        1.44590       -0.48720
N          4.38470        2.49960        0.33020
N          5.77910        1.07180       -0.84560
H          0.58740        1.07960        0.20780
H          0.49070       -0.68810        0.29660
H          0.72710        0.10910       -1.26900
H          2.70580        0.10560        1.07180
H          2.85590       -1.31340       -1.68710
H          4.13500       -1.31700       -0.39580
H          2.97180        1.17450       -1.86120
H          3.54890        2.48000        0.89720
H          5.22080        2.79160        0.82280
H          5.71300        0.26720       -1.47690
