12
qm7 1145 -1276.1
C          0.92410        0.01840       -0.00870
C          2.41460        0.04880       -0.00090
C          3.18490        1.19660        0.00250
S          4.86380        0.87000        0.01130
C          4.58840       -0.81590        0.01060
C          3.24500       -1.11940        0.00380
H          0.50280        1.02880        0.00050
H          0.55020       -0.51350        0.87200
H          0.55940       -0.49380       -0.90470
H          2.84270        2.22260        0.00020
H          5.42350       -1.50270        0.01510
H          2.87130       -2.13640        0.00220
