11
qm7 1127 -1155.49
O          1.09890       -0.23590        0.30650
C          2.46870        0.07650        0.02610
C          2.79830       -0.60340       -1.27580
C          3.33650       -0.07730       -2.38690
C          2.69710        1.53770        0.03260
N          2.86270        2.68720        0.07940
H          0.80890        0.35770        1.02080
H          3.06970       -0.38440        0.81790
H          2.55290       -1.66480       -1.29400
H          3.60990        0.97050       -2.47330
H          3.51110       -0.70000       -3.26040
