14
qm7 768 -1380.38
C          0.19120       -0.31820       -0.19730
C          1.62200       -0.82540       -0.17550
C          2.61740        0.30150        0.07920
O          3.95270       -0.22380        0.13260
C          4.58890       -0.33000       -1.06020
O          4.14220       -0.03650       -2.15700
H         -0.50160       -1.14500       -0.38180
H          0.05130        0.42520       -0.98860
H         -0.07620        0.14260        0.75890
H          1.85090       -1.32100       -1.12630
H          1.73330       -1.59430        0.59870
H          2.41960        0.76370        1.05250
H          2.53600        1.09460       -0.67340
H          5.59820       -0.73530       -0.89020
