13
qm7 6645 -1318.79
N          0.93770        0.11290       -0.11220
C          2.28170        0.02140       -0.06100
C          3.18580        1.06130       -0.01990
C          4.52880        0.60440        0.02960
N          5.59660        1.42200        0.07620
C          4.61630       -0.76500        0.02600
S          3.06990       -1.49710       -0.03900
H          0.46880        0.98380        0.11230
H          0.38330       -0.71900        0.06600
H          2.88970        2.10120       -0.02780
H          5.51300        2.42910       -0.01570
H          6.54960        1.07770        0.01570
H          5.50290       -1.38090        0.05790
