14
qm7 3993 -1488.33
C          1.01690       -0.06640       -0.00630
C          2.47880        0.09510       -0.00020
C          3.33830        1.16760        0.00220
N          4.63710        0.72730        0.00840
C          4.52380       -0.58560        0.00950
C          5.59180       -1.60460        0.01520
O          3.23420       -1.04390        0.00430
H          0.51420        0.90560        0.00260
H          0.68890       -0.62710        0.87430
H          0.69440       -0.60830       -0.90060
H          3.09530        2.22090       -0.00000
H          5.17870       -2.61770        0.02360
H          6.22310       -1.48490        0.90040
H          6.21990       -1.49820       -0.87400
