15
qm7 2568 -1524.13
C          1.13050       -0.02230        0.11390
C          2.64330       -0.03800        0.00950
O          3.17480        1.11620        0.66510
C          4.42830        0.68160        1.18340
C          4.25470       -0.78780        1.30810
C          4.99680       -1.61980        2.04450
O          3.15540       -1.23560        0.60460
H          0.69450       -0.89200       -0.38800
H          0.71670        0.89310       -0.32130
H          0.81580       -0.05810        1.16320
H          2.94820       -0.01380       -1.04400
H          5.21500        0.93450        0.46560
H          4.61620        1.17920        2.13850
H          4.76070       -2.67840        2.08360
H          5.84480       -1.26670        2.61970
