11
qm7 3277 -1232.29
C          1.00720       -0.21330        0.39430
C          2.11700        0.10880       -0.56290
O          2.48260       -0.64830       -1.45380
C          2.79340        1.45930       -0.37840
O          2.45200        2.17710        0.55330
C          3.82600        1.91350       -1.28560
C          4.68220        2.29520       -2.03770
H          0.21220        0.53120        0.30460
H          1.39350       -0.23890        1.41620
H          0.59260       -1.19620        0.15280
H          5.44100        2.63310       -2.70510
