18
qm7 5060 -1786.19
C          1.46740       -0.22760       -0.42520
C          2.84050        0.07150        0.09970
C          3.64080       -1.05260        0.70170
C          4.05280       -0.46020       -0.61830
C          5.06210        0.64350       -0.67150
C          4.26160        1.90660       -0.33060
N          3.11290        1.47750        0.49240
H          1.11080        0.58200       -1.06960
H          0.76390       -0.33860        0.40600
H          1.44860       -1.15220       -1.01110
H          3.21460       -2.04970        0.69450
H          4.24610       -0.85110        1.57740
H          3.93080       -1.01880       -1.53360
H          5.85160        0.47120        0.06880
H          5.52300        0.72350       -1.66070
H          4.87230        2.65770        0.17910
H          3.87490        2.35690       -1.25240
H          3.38370        1.50540        1.47530
