13
qm7 2890 -1384.56
C          0.99100       -0.05480        0.01090
C          2.51210        0.02810       -0.04940
C          3.03250       -0.74950       -1.19620
C          3.45420       -1.39170       -2.11970
C          2.92580        1.49300       -0.06190
O          3.08670        2.05080       -1.28450
O          3.03510        2.16060        0.95900
H          0.60280        0.49320        0.87650
H          0.65460       -1.09450        0.08950
H          0.53130        0.37840       -0.88530
H          2.93350       -0.40830        0.86500
H          3.83140       -1.97440       -2.92990
H          2.95480        1.43250       -2.02870
