19
qm7 3143 -1840.87
C          1.19360        1.12590        1.48910
C          2.68060        0.84290        1.44870
O          3.26560        1.62800        0.41450
C          4.69120        1.48470        0.24850
C          5.32720        2.39290       -0.83240
C          6.53480        2.55970        0.10840
C          5.58650        2.22510        1.27380
H          0.70460        0.53480        2.26830
H          0.73020        0.89240        0.52500
H          1.00860        2.18750        1.68240
H          2.85780       -0.21820        1.24240
H          3.13990        1.10100        2.40910
H          4.97110        0.43090        0.11520
H          4.77470        3.32140       -1.01820
H          5.54370        1.91020       -1.78880
H          7.32120        1.81250       -0.04810
H          6.98620        3.55450        0.13200
H          6.01670        1.60250        2.06230
H          5.11250        3.10200        1.72980
