8
qm7 86 -861.62
O         -0.37710       -1.07100       -0.00220
C         -1.15940        0.03790       -0.00200
C         -0.36940        1.15830        0.00050
C          0.93960        0.64600        0.00190
N          0.95590       -0.68890        0.00030
H         -2.22460       -0.14180       -0.00380
H         -0.69120        2.18790        0.00130
H          1.87910        1.17960        0.00390
