16
qm7 6220 -1505.72
O          0.85560        0.09310        0.12610
C          2.26920       -0.05570        0.08400
C          2.89830        1.33080        0.02650
C          4.41990        1.28820        0.05440
C          4.96450        0.69270       -1.21370
N          5.58280       -0.44280       -1.19380
O          5.97600       -0.76380       -2.49700
H          0.47740       -0.80240        0.16680
H          2.52540       -0.64730       -0.80030
H          2.58890       -0.59520        0.98120
H          2.53770        1.92190        0.87740
H          2.54330        1.85230       -0.87130
H          4.77940        0.72180        0.92010
H          4.81250        2.30830        0.12800
H          4.80130        1.25640       -2.14930
H          6.46230       -1.60040       -2.37020
