15
qm7 2259 -1543.54
C          0.90390       -0.17850       -0.00150
C          2.37180        0.15390        0.17050
C          3.50180       -0.69060       -0.56540
O          4.36310        0.52930       -0.22970
C          3.10170        1.19170       -0.78940
C          2.96400        0.68950       -2.18200
C          3.24090       -0.61230       -2.02690
H          0.28340        0.65170        0.35070
H          0.64430       -1.06340        0.58870
H          0.62940       -0.38100       -1.04040
H          2.57960        0.32670        1.23720
H          3.86740       -1.61630       -0.12260
H          3.04370        2.26010       -0.58370
H          2.72460        1.24100       -3.07480
H          3.28600       -1.39810       -2.76080
