14
qm7 4710 -1427.51
C          1.02780       -0.06180        0.05590
C          2.53310       -0.11580       -0.04750
N          3.10720       -1.38350       -0.12920
C          3.24590        1.02580       -0.04010
C          4.71930        1.12930       -0.05060
O          5.35320       -0.01760        0.26590
O          5.29440        2.17810       -0.28950
H          0.65090        0.96450        0.11820
H          0.69050       -0.59640        0.95030
H          0.57230       -0.53180       -0.82210
H          2.39480       -2.11610       -0.05260
H          3.54420       -1.50950       -1.05160
H          2.75550        1.99400       -0.00890
H          4.69450       -0.72760        0.45950
