13
qm7 4931 -1360.84
C          1.09630       -0.19300        0.22180
C          2.49180       -0.22150       -0.33890
O          2.85290       -1.05170       -1.16580
N          3.32970        0.74010        0.16710
C          4.72420        0.77360       -0.23510
C          5.43090        1.93330        0.32810
N          5.96380        2.85210        0.79570
H          0.88390        0.75620        0.72160
H          0.98270       -1.00870        0.94060
H          0.37960       -0.31720       -0.59470
H          3.02940        1.30670        0.95160
H          4.76770        0.79050       -1.32960
H          5.19120       -0.15860        0.10120
