9
qm7 82 -966.71
O          1.29530       -0.34080        0.73060
C          2.24480       -0.05720        0.00420
C          3.00340        1.23940        0.09690
C          4.45010        1.01490       -0.01350
C          5.63570        0.84000       -0.10330
H          2.52780       -0.72310       -0.82950
H          2.76120        1.72500        1.04750
H          2.65810        1.88420       -0.71760
H          6.68830        0.68950       -0.17840
