18
qm7 4055 -1710.06
C          0.98240       -0.09200        0.03480
C          2.49610        0.00460        0.04560
C          3.16140        1.09020        0.94880
O          2.40680        1.56700        2.08870
C          4.20020       -0.02660        1.24060
N          3.12450       -1.01340        0.94210
C          3.65770       -2.12670        0.16360
H          0.65500       -0.96650       -0.53800
H          0.54770        0.79510       -0.43810
H          0.56170       -0.17480        1.04270
H          2.89140        0.03300       -0.98080
H          3.56710        1.94440        0.39530
H          2.12810        0.74330        2.53200
H          5.05750       -0.01820        0.55540
H          4.57220       -0.06480        2.26890
H          2.83650       -2.75450       -0.19920
H          4.29090       -2.75570        0.79930
H          4.25340       -1.81510       -0.70320
