17
qm7 5172 -1605.63
C          0.28730        1.20090       -0.25440
N          1.60270        1.83300       -0.19170
C          2.59640        1.02530       -0.26610
N          3.91390        1.38430       -0.23610
C          4.38300        2.70070        0.18750
C          4.01070        3.80270       -0.81310
O          2.68480        4.28220       -0.60760
H         -0.28540        1.46840        0.63890
H          0.31950        0.10770       -0.31770
H         -0.25370        1.57500       -1.12880
H          2.47580       -0.06780       -0.37970
H          4.57290        0.63270       -0.06250
H          5.47540        2.65090        0.25510
H          3.99340        2.92810        1.18580
H          4.10040        3.45670       -1.84800
H          4.67860        4.65950       -0.68020
H          2.12120        3.47890       -0.50790
