16
qm7 5474 -1585.49
N          1.54820       -0.27840       -0.51600
C          2.84950        0.03450        0.08790
C          3.63670       -1.12010        0.65600
C          4.09550       -0.40420       -0.58340
C          5.06450        0.72140       -0.50570
O          4.32240        1.88100       -0.08570
C          3.12430        1.43450        0.57890
H          1.22060        0.49580       -1.09750
H          0.83860       -0.41520        0.20540
H          3.24210       -2.12350        0.53620
H          4.18350       -0.96990        1.57840
H          4.04390       -0.89130       -1.54510
H          5.85480        0.52770        0.22700
H          5.52620        0.93790       -1.47230
H          3.29260        1.45720        1.66000
H          2.32180        2.13500        0.33190
