11
qm7 5658 -1176.75
N          1.00000        0.00000        0.00000
C          2.15100        0.00000        0.00000
C          3.59500        0.00000        0.00000
C          4.18890       -1.22450        0.64890
O          4.47090       -0.84870        2.00440
N          4.61040        0.55890        2.04440
C          4.11600        1.01120        0.94290
H          3.99110        0.16250       -1.00560
H          5.14060       -1.50070        0.18060
H          3.53200       -2.10020        0.64340
H          4.06500        2.08400        0.70600
