13
qm7 345 -1359.44
C          1.01150       -0.02830        0.25420
C          2.52000        0.00000        0.00000
C          2.83890       -0.77430       -1.26560
C          3.37110       -0.31590       -2.40850
C          3.00200        1.36120        0.00000
N          3.38620        2.44620        0.00000
H          0.76430        0.46690        1.20030
H          0.63880       -1.05720        0.31090
H          0.45890        0.48640       -0.54110
H          3.00730       -0.53440        0.82600
H          2.60800       -1.83900       -1.21740
H          3.64020        0.72610       -2.55870
H          3.55300       -0.98940       -3.24200
