14
qm7 685 -1431.09
C          0.93350       -0.15750       -0.06330
C          2.41530        0.04460       -0.11450
C          3.08060        1.20870        0.00300
C          2.50170        2.57730        0.18530
C          4.56970        1.14600       -0.06490
O          5.27880        2.14030        0.03320
H          0.69610       -0.92850        0.67670
H          0.57270       -0.49940       -1.03810
H          0.37830        0.74120        0.21190
H          2.97330       -0.88060       -0.25680
H          1.41110        2.59310        0.12840
H          2.87000        3.25430       -0.59310
H          2.78910        2.98380        1.16070
H          5.00630        0.14340       -0.20770
