17
qm7 2507 -1696.59
C          1.01660       -0.05420       -0.07620
C          2.49810        0.06370       -0.08950
O          3.11320       -0.31000       -1.32340
C          3.19470        1.08220       -0.96250
C          4.59150        1.60610       -0.65720
C          5.85640        0.93200       -1.13540
C          5.45000        2.25000       -1.72110
H          0.59300        0.61890        0.67530
H          0.72200       -1.07720        0.17720
H          0.57500        0.19660       -1.04610
H          2.96580       -0.25000        0.83360
H          2.55480        1.76590       -1.51400
H          4.66190        2.07290        0.32660
H          5.76490        0.05070       -1.76020
H          6.70410        0.91020       -0.46160
H          6.02420        3.12760       -1.44740
H          5.08560        2.25600       -2.74180
