21
qm7 1324 -1934.31
C          0.96290       -0.05240        0.15890
C          2.45160       -0.11100       -0.16890
C          3.22340        1.23400       -0.07010
C          2.62820        2.28990       -1.01390
N          3.16580        1.75620        1.31300
C          4.72050        1.00320       -0.45920
N          5.46010        0.22120        0.54330
H          0.52530       -1.05220        0.06580
H          0.42300        0.60500       -0.52810
H          0.78600        0.28860        1.18300
H          2.55690       -0.50910       -1.18670
H          2.91070       -0.85390        0.49610
H          2.61810        1.92800       -2.04800
H          3.21370        3.21680       -0.99350
H          1.60100        2.55430       -0.74150
H          3.43770        0.99640        1.93930
H          2.20120        1.97800        1.55420
H          5.23030        1.96820       -0.57270
H          4.78300        0.49050       -1.42590
H          5.46010        0.77240        1.40350
H          6.43640        0.16630        0.25640
