16
qm7 4088 -1589.94
C          0.92040        0.03380       -0.25320
C          2.34040        0.36370        0.05560
N          3.40890       -0.48980       -0.44290
C          3.26660        0.85810       -1.03030
C          4.43750        1.74650       -0.79590
C          4.58890        2.37650        0.55910
O          5.21500        1.97650       -1.71720
H          0.29710        0.92530       -0.13680
H          0.55180       -0.73090        0.43720
H          0.79210       -0.33820       -1.27460
H          2.46000        0.71980        1.07140
H          3.07100       -1.19040       -1.10520
H          2.88610        0.88830       -2.04610
H          3.68360        2.93240        0.81430
H          5.43040        3.07510        0.54320
H          4.78960        1.60830        1.30960
