19
qm7 352 -1767.17
C          0.97930       -0.10950        0.00500
C          2.50890       -0.00660       -0.01860
C          3.03670       -0.78240       -1.23470
C          2.99600        1.46650       -0.02570
C          2.47970        2.27220        1.16880
N          4.46200        1.51860       -0.02180
H          0.56720        0.28620        0.93780
H          0.65790       -1.15400       -0.06750
H          0.53290        0.44030       -0.82990
H          2.88840       -0.50470        0.88470
H          2.71380       -0.31500       -2.17110
H          2.66750       -1.81350       -1.22740
H          4.12990       -0.83160       -1.23670
H          2.64770        1.95240       -0.94510
H          2.73480        1.78960        2.11900
H          1.39250        2.39270        1.12680
H          2.90720        3.28170        1.17770
H          4.81880        1.09650        0.83490
H          4.77250        2.48900       -0.00980
