20
qm7 7126 -1920.97
C          0.90120       -0.17090       -0.01010
C          2.42620       -0.09340       -0.07260
C          2.96760       -1.01890       -1.16180
C          2.86910        1.32600       -0.33160
C          3.64540        2.03070        0.50750
C          4.10680        3.42930        0.25770
N          3.65750        4.28800        1.34170
H          0.50770        0.47440        0.78310
H          0.57470       -1.19490        0.20090
H          0.44250        0.13960       -0.95560
H          2.82210       -0.43730        0.89170
H          2.59130       -0.73880       -2.15220
H          2.67190       -2.05600       -0.97080
H          4.06230       -0.98520       -1.19590
H          2.52990        1.78260       -1.26000
H          3.99050        1.57600        1.43450
H          3.73240        3.81390       -0.69720
H          5.20080        3.44290        0.21390
H          2.63850        4.30760        1.33950
H          3.95720        5.24260        1.15270
