11
qm7 995 -1169.74
C          0.99830       -0.03530        0.10050
C          2.52000        0.00000        0.00000
C          2.94830       -0.76020       -1.23230
O          3.78490       -0.38650       -2.04750
C          3.00200        1.36120        0.00000
N          3.38620        2.44620        0.00000
H          0.64990        0.47230        1.00700
H          0.62980       -1.06720        0.12970
H          0.52820        0.45610       -0.75990
H          2.93730       -0.54100        0.85740
H          2.50170       -1.76460       -1.33860
