13
qm7 6166 -1348.23
O          1.03960        0.06880        0.08380
C          2.26110        0.04460        0.04830
C          3.03800        1.33760        0.05340
N          4.29280        1.35030       -0.31540
C          4.66220        2.79750       -0.21720
C          3.34500        3.57700       -0.08610
N          2.46350        2.54040        0.38850
H          2.87590       -0.86700       -0.00200
H          5.29490        2.93930        0.66610
H          5.22210        3.11040       -1.10370
H          3.01010        3.94290       -1.06240
H          3.42310        4.41460        0.61180
H          1.46530        2.61580        0.21220
