14
qm7 5035 -1402.78
C          2.54100       -0.46780       -1.64600
N          2.32900        0.09660       -0.31880
C          3.17430        1.29910       -0.15260
C          2.38790        2.55990       -0.53840
O          2.51360        3.08480        0.81290
C          3.11650        1.95110        1.26230
O          3.46000        1.67520        2.38880
H          1.88510       -1.33350       -1.78260
H          3.57460       -0.80380       -1.77740
H          2.29840        0.25580       -2.43100
H          2.52350       -0.62160        0.38270
H          4.19600        1.22900       -0.53920
H          1.33590        2.43530       -0.81540
H          2.88330        3.21060       -1.26570
