20
qm7 6858 -1938.48
C          0.96740        0.01130       -0.02750
C          2.49360        0.00020        0.00570
N          2.99120        0.09140       -1.37120
C          3.06340        1.12930        0.87490
C          4.48020        0.67230        1.19770
C          4.37800       -0.84300        1.34010
C          3.05430       -1.25790        0.68690
H          0.54870       -0.06750        0.98240
H          0.57640       -0.82930       -0.61230
H          0.58510        0.93850       -0.46940
H          4.00980        0.07180       -1.38700
H          2.71740        0.98500       -1.77750
H          2.49050        1.22730        1.80540
H          3.05290        2.10530        0.37780
H          5.16200        0.92620        0.37720
H          4.86900        1.14600        2.10470
H          5.23260       -1.33900        0.86890
H          4.37450       -1.13100        2.39780
H          3.19960       -2.09000       -0.01320
H          2.37030       -1.62040        1.46320
