14
qm7 373 -1348.49
C          0.95030       -0.00940       -0.08290
C          2.42700        0.03190        0.14010
C          3.15870        1.14880        0.02830
C          4.61570        1.11040        0.26700
N          5.34100        2.17880        0.16120
N          6.65230        1.95710        0.40870
H          0.71530       -0.70560       -0.89390
H          0.54350        0.97190       -0.34700
H          0.44590       -0.35510        0.82460
H          2.89650       -0.91200        0.40750
H          2.73440        2.11140       -0.23290
H          5.04500        0.12840        0.54030
H          7.13380        2.85700        0.48480
H          7.09570        1.49460       -0.38940
