13
qm7 359 -1364.82
C          0.87320       -0.22260       -0.09500
C          2.36890       -0.03850        0.11060
C          2.75160        1.41220        0.08310
C          3.30540        2.05860        1.12110
C          3.66080        3.43410        1.05660
N          3.95240        4.55600        1.00890
H          0.61830       -1.28720       -0.08420
H          0.55070        0.19180       -1.05620
H          0.30160        0.27060        0.69820
H          2.91300       -0.56140       -0.68460
H          2.66260       -0.50470        1.05820
H          2.56650        1.94490       -0.85050
H          3.50200        1.54760        2.05600
