17
qm7 1204 -1673.91
C          0.85020       -0.06020       -0.29820
C          2.33800        0.07780       -0.37360
C          3.08400        1.14160       -0.01420
C          2.56130        2.41540        0.57970
C          4.57460        1.03480       -0.19760
N          5.22550       -0.16190       -0.24420
N          5.34790        2.06990       -0.30290
H          0.58980       -0.86630        0.39400
H          0.45740       -0.32010       -1.28620
H          0.34040        0.84780        0.02810
H          2.82810       -0.79150       -0.81030
H          1.54490        2.31930        0.96820
H          2.56220        3.21300       -0.16920
H          3.18430        2.72910        1.42410
H          4.86660       -0.87440        0.37880
H          6.22680       -0.02340       -0.14870
H          4.80920        2.93790       -0.28840
