17
qm7 2686 -1698.66
C          0.95080        0.17600       -0.90590
C          2.41430        0.09200       -0.62360
C          3.21750        1.15820       -0.48340
C          4.65500        1.10970       -0.19590
C          5.59230        0.55160       -1.23560
C          5.57810        2.02550       -0.96140
O          6.70630        2.54670       -0.24270
H          0.72340       -0.33040       -1.84930
H          0.60150        1.21050       -0.98110
H          0.38810       -0.31680       -0.10670
H          2.83390       -0.90740       -0.53130
H          2.78350        2.15380       -0.56900
H          4.89140        0.91890        0.84600
H          5.18560        0.21640       -2.18350
H          6.43960       -0.03160       -0.89650
H          5.15080        2.66500       -1.72830
H          7.03490        1.92760        0.43230
