21
qm7 3062 -1989.7
C          2.90320       -1.11270        1.20420
C          3.49910       -0.86430       -0.17860
C          2.43690       -1.08310       -1.25160
O          3.93990        0.48970       -0.30640
C          5.18400        0.79820        0.32730
C          6.35750        0.33220       -0.52980
C          5.22590        2.31380        0.49540
H          3.66670       -1.03970        1.98410
H          2.45580       -2.10940        1.26840
H          2.13760       -0.36590        1.44030
H          4.32550       -1.55870       -0.36210
H          1.60460       -0.38080       -1.12940
H          2.04260       -2.10340       -1.22140
H          2.85760       -0.90160       -2.24630
H          5.23920        0.33890        1.31890
H          6.27600        0.72130       -1.55020
H          6.38080       -0.75860       -0.60870
H          7.31060        0.65810       -0.10310
H          5.15150        2.81950       -0.47300
H          6.14900        2.63470        0.98970
H          4.37440        2.65360        1.09430
