15
qm7 1644 -1540.02
C          1.09000        0.00480       -0.18530
N          2.51630       -0.01420        0.02970
C          3.28100       -1.13690        0.23050
C          4.56290       -0.81290        0.44250
C          4.75050        0.68570        0.39630
C          3.30650        1.11190        0.10850
N          2.95180        2.34470       -0.02700
H          0.70680        1.01910       -0.33720
H          0.56990       -0.42250        0.67870
H          0.82930       -0.58560       -1.07030
H          2.83480       -2.12190        0.20690
H          5.36060       -1.51630        0.62640
H          5.08360        1.08830        1.35560
H          5.41190        0.99500       -0.41650
H          3.76530        2.95650        0.08340
