15
qm7 3075 -1571.76
C          2.39980       -0.56910        1.42860
C          2.55400       -0.05860        0.00900
C          2.97380        1.38930        0.00520
O          2.18260        2.32380        0.04600
C          4.39710        1.65320        0.00000
C          5.56750        1.87010        0.00000
C          6.98730        2.13330        0.00000
H          2.07140       -1.61260        1.42530
H          1.66110        0.02190        1.97970
H          3.34690       -0.50950        1.97420
H          1.60370       -0.14090       -0.53100
H          3.28790       -0.65910       -0.54020
H          7.18890        3.20880       -0.01320
H          7.46990        1.69190       -0.87740
H          7.46560        1.71440        0.89070
