18
qm7 282 -1750.35
C          1.17020        0.20340        0.14990
C          2.66080       -0.03060       -0.09060
C          2.87620       -0.78630       -1.40100
C          3.40020        1.28290       -0.11530
C          3.84200        1.92920        1.17310
C          4.86360        1.33660        0.24340
H          1.00600        0.72410        1.10010
H          0.62590       -0.74640        0.18720
H          0.72930        0.81840       -0.64330
H          3.04250       -0.65400        0.72720
H          2.50620       -0.21240       -2.25850
H          2.35700       -1.75060       -1.38650
H          3.94170       -0.97910       -1.56860
H          3.05760        1.93870       -0.91000
H          3.64830        1.41510        2.10760
H          3.78460        3.00970        1.24320
H          5.49710        2.01600       -0.31540
H          5.35900        0.42240        0.55090
