15
qm7 4774 -1478.34
C          1.29100        2.87780        1.42420
C          2.54910        2.16670        1.03380
N          3.59330        2.83360        0.66440
N          4.67240        2.07190        0.33720
C          5.86490        2.61660       -0.07470
C          5.93370        4.11840       -0.14970
O          6.81630        1.89570       -0.37310
H          1.04040        2.61190        2.45420
H          0.48060        2.54670        0.77010
H          1.41080        3.96080        1.34260
H          2.52970        1.06330        1.08120
H          4.63150        1.05950        0.38220
H          5.26770        4.48210       -0.93630
H          6.95760        4.42270       -0.38730
H          5.65960        4.56100        0.81180
