17
qm7 3567 -1746.04
O          1.08750        0.04800        0.34740
C          2.28840        0.01780        0.08150
C          3.04830       -1.28750        0.00770
C          3.99770       -1.29610       -1.18220
C          4.89200       -0.05880       -1.20180
C          4.05460        1.21770       -1.21710
C          3.10590        1.28540       -0.02840
H          2.33500       -2.11370       -0.08060
H          3.59910       -1.41020        0.94630
H          4.61680       -2.19970       -1.15270
H          3.41710       -1.33440       -2.11250
H          5.54900       -0.06140       -0.32370
H          5.53680       -0.08560       -2.08740
H          4.71380        2.09290       -1.21180
H          3.47630        1.25660       -2.14870
H          3.66080        1.41080        0.90730
H          2.42940        2.13920       -0.14200
