13
qm7 2649 -1353.79
C          1.00000        0.00000        0.00000
C          2.19020        0.00000        0.00000
C          3.63420        0.00000        0.00000
C          4.22690        1.11730        0.83010
O          5.52200        0.62720        1.17860
C          5.33090       -0.78460        1.29350
O          4.13200       -1.18530        0.63180
H         -0.06570       -0.01080        0.00170
H          4.03950        0.01920       -1.01810
H          3.67250        1.29570        1.75910
H          4.30960        2.06230        0.28500
H          6.18710       -1.30140        0.84900
H          5.26100       -1.05570        2.35060
