9
qm7 329 -1058.34
C          0.97090       -0.01560       -0.00000
C          2.31400        0.00000        0.00000
C          3.01710       -1.21760        0.00000
C          3.61210       -2.24830        0.00000
C          3.01030        1.24940        0.00000
N          3.56080        2.27080        0.00000
H          0.39130        0.90360       -0.00000
H          0.41280       -0.94740       -0.00000
H          4.14800       -3.16950        0.00000
