15
qm7 5091 -1428.17
C          0.81590        2.15990       -0.63430
N          2.07310        1.59910       -0.14810
C          3.07700        2.39940       -0.22960
C          4.41490        1.98800        0.23350
C          5.43250        2.85320        0.17080
N          6.72690        2.62680        0.56750
O          7.72020        3.44080        0.03690
H         -0.00720        1.77480       -0.02430
H          0.64350        1.85140       -1.67000
H          0.77790        3.25390       -0.57820
H          2.99470        3.42010       -0.64460
H          4.51490        0.98280        0.62270
H          5.29180        3.85920       -0.21840
H          6.98620        1.63920        0.62720
H          7.88320        4.08550        0.75210
