13
qm7 942 -1285.8
C          0.95230       -0.10440        0.01220
C          2.40930        0.14260       -0.16890
C          3.19990       -0.62950       -1.16490
N          2.85160        0.74560       -1.39030
C          3.81780        1.73640       -1.38710
O          3.83240        2.71040       -2.12910
H          0.45710        0.80390        0.36980
H          0.79530       -0.89210        0.75550
H          0.46520       -0.41340       -0.91880
H          2.89160        0.49070        0.73610
H          2.70080       -1.30760       -1.84410
H          4.24720       -0.82490       -0.97770
H          4.60520        1.57050       -0.63160
