14
qm7 4803 -1364.76
C          0.67650        0.00100       -0.08880
C          2.16930       -0.03690       -0.17040
N          2.88980        0.81970        0.47580
O          4.24430        0.55940        0.21860
C          5.02520        1.54600        0.88490
C          6.46710        1.17460        0.67460
O          7.35190        1.98450        0.40890
H          0.31870       -0.95500        0.30230
H          0.27110        0.14140       -1.09430
H          0.33930        0.81320        0.56010
H          2.61760       -0.82280       -0.80300
H          4.81560        1.53410        1.95910
H          4.83020        2.53490        0.45920
H          6.71680        0.11710        0.86660
