13
qm7 3777 -1388.27
O          2.17510        1.81380        1.61610
C          1.90200        1.24430        0.57210
C          2.95860        0.83890       -0.42830
O          2.63050        0.26000       -1.45400
C          4.36360        1.16630       -0.07790
C          5.45260        0.14310       -0.30500
C          5.39180        1.37040       -1.16750
H          0.87660        0.97760        0.27010
H          4.48300        1.79450        0.80240
H          5.18790       -0.80550       -0.76020
H          6.24690        0.07560        0.43000
H          6.14530        2.13520       -1.01860
H          5.08600        1.24550       -2.20090
