14
qm7 1608 -1384.38
C          0.22250        0.63800        0.79350
C          1.11610        0.07290       -0.26600
N          2.34580       -0.23070        0.00230
N          3.02440       -0.72680       -1.06250
C          4.40480       -1.16320       -0.79190
C          5.05760       -1.69720       -2.00040
N          5.57590       -2.09580       -2.96150
H         -0.63990       -0.02190        0.91750
H         -0.13190        1.62000        0.46970
H          0.75250        0.73340        1.74420
H          0.67020       -0.06950       -1.26750
H          3.03740       -0.06560       -1.84470
H          4.39410       -1.93630       -0.01540
H          4.98600       -0.31650       -0.40890
