14
qm7 146 -1315.9
C          1.01920        0.00240       -0.06720
C          2.50700        0.05030       -0.02120
C          3.31900       -0.70720       -1.04600
N          3.22670        0.74970       -1.07930
C          4.44600        1.41060       -0.62290
H          0.59660        0.78350        0.57300
H          0.66220       -0.96540        0.29960
H          0.62830        0.14680       -1.08030
H          2.88320        0.09450        0.99450
H          2.79770       -1.22650       -1.84230
H          4.25070       -1.16040       -0.73650
H          4.23540        2.46720       -0.42990
H          5.20960        1.36340       -1.40600
H          4.87620        0.98400        0.29230
