20
qm7 1481 -1907.16
C          1.69580        2.53880        1.68020
C          2.93030        2.48010        0.79310
N          3.81880        1.41060        1.25030
C          5.00940        1.36450        0.40270
C          6.07230        2.35990        0.92870
C          7.10580        1.23040        0.72790
C          5.93680        0.23590        0.91310
H          1.02860        3.33990        1.34550
H          1.96640        2.73880        2.72300
H          1.13550        1.59800        1.64520
H          3.44000        3.44930        0.83300
H          2.61820        2.30270       -0.24250
H          3.30040        0.53220        1.26540
H          4.85060        1.36150       -0.68160
H          5.96590        2.66520        1.97760
H          6.22950        3.25190        0.31630
H          7.54920        1.20920       -0.27420
H          7.90220        1.17380        1.47370
H          5.98130       -0.65980        0.28740
H          5.79550       -0.06970        1.95760
