13
qm7 6992 -1374.88
C          1.10640        0.03600        0.06920
C          2.30780        0.03660        0.06660
C          3.73560        0.04330        0.06180
N          4.31670       -1.10480       -0.10580
C          5.76330       -0.72220       -0.09490
C          5.81410        0.81150       -0.23630
N          4.47560        1.17770        0.16810
H          0.04190        0.02170        0.07310
H          6.20670       -1.04480        0.85410
H          6.29560       -1.21320       -0.91540
H          5.98710        1.09880       -1.27900
H          6.58080        1.26280        0.39880
H          4.07060        2.01950       -0.22100
