11
qm7 1062 -1159.43
C          1.17590       -0.03630       -0.59020
O          2.53290       -0.09860       -0.15630
C          3.13880        1.12930       -0.14490
C          4.45650        1.25490        0.04020
C          5.09490        2.52060        0.06130
N          5.61350        3.55790        0.07680
H          0.77460       -1.05380       -0.59800
H          1.11130        0.36800       -1.60610
H          0.57550        0.56560        0.10030
H          2.47880        1.97730       -0.28280
H          5.07450        0.37580        0.18010
