18
qm7 5505 -1739.24
N          1.01040        0.05000       -0.06250
C          2.46350        0.02470        0.03720
C          3.00530        1.12730        0.93660
C          4.43210        0.66210        1.19350
C          4.31960       -0.85130        1.37390
C          3.01250       -1.26280        0.68390
O          3.23460       -2.27570       -0.29100
H          0.70090       -0.77940       -0.57370
H          0.71220        0.85740       -0.60730
H          2.87460        0.13050       -0.97510
H          2.45140        1.18260        1.88040
H          2.97160        2.11240        0.46040
H          5.06000        0.88560        0.32220
H          4.87950        1.15130        2.06330
H          5.20010       -1.36940        0.97950
H          4.25150       -1.08420        2.44370
H          2.31610       -1.66690        1.42850
H          3.91040       -1.95210       -0.91080
