15
qm7 6053 -1475.03
O          0.92340       -0.00140        0.16520
C          2.35860        0.02600        0.10230
C          2.81260        1.30140       -0.61160
N          4.04770        1.10320       -1.33820
C          4.12980       -0.03760       -2.07700
N          3.57880       -1.16350       -1.82270
C          2.86340       -1.27850       -0.54040
H          0.63430        0.75200        0.70670
H          2.70940        0.04540        1.14100
H          2.94390        2.10630        0.12110
H          2.03750        1.64740       -1.30630
H          4.38220        1.93790       -1.81030
H          4.73620        0.08500       -2.99050
H          2.02830       -1.97340       -0.68500
H          3.54900       -1.77080        0.16210
