16
qm7 3836 -1572.21
C         -1.67700        0.76790        0.43810
C         -1.01250       -0.38360       -0.27020
C         -0.24060       -1.41300        0.50260
O          1.15020       -1.39430        0.17060
C          1.70270       -0.08130       -0.00420
C          0.77420        1.08000        0.38490
N         -0.48490        0.99290       -0.37240
H         -2.60390        1.14900        0.02360
H         -1.59980        0.85720        1.51490
H         -1.44710       -0.77280       -1.18180
H         -0.33540       -1.26290        1.58440
H         -0.62400       -2.41450        0.28350
H          2.62210       -0.03330        0.58930
H          1.99820        0.00800       -1.05630
H          0.61060        1.07740        1.47020
H          1.26250        2.03030        0.14330
