17
qm7 2289 -1710.63
C          0.94320        0.01010        0.10780
C          2.46470        0.00770       -0.02710
C          3.16390        1.05110        0.90290
C          4.20690       -0.02960        1.24000
C          3.15880       -1.08680        0.84470
C          2.89920        0.03270       -1.53940
O          2.66090       -0.82650       -2.38870
H          0.62790       -0.00570        1.15680
H          0.50780       -0.86700       -0.38270
H          0.51500        0.90550       -0.35520
H          2.56750        1.36650        1.76760
H          3.56310        1.94480        0.41490
H          5.08490       -0.01420        0.58460
H          4.54130       -0.05880        2.28000
H          3.55510       -1.95260        0.30640
H          2.56110       -1.44700        1.69070
H          3.47180        0.92920       -1.83310
