13
qm7 6493 -1318.86
C          0.87720       -0.01860       -0.00380
C          2.35990        0.05430       -0.00430
C          3.22710        1.12590       -0.00380
N          2.85490        2.42160       -0.00170
C          4.57910        0.67020       -0.00650
N          4.77550       -0.64610       -0.00780
S          3.29240       -1.38860       -0.00730
H          0.42390        0.97720        0.00860
H          0.51570       -0.55730        0.87850
H          0.51470       -0.53610       -0.89830
H          3.52500        3.18470        0.01610
H          1.88560        2.72130        0.01890
H          5.46010        1.29700       -0.00730
