16
qm7 3895 -1545.91
C          0.15840        0.50890       -0.37310
C          1.39600       -0.21330        0.03280
C          2.12890       -1.08720       -0.94730
C          2.73280        0.22240       -0.51030
O          3.84890        0.11730        0.39320
N          3.93490        1.34650        1.05660
C          4.90850        1.28910        1.89820
H          0.02170        1.39990        0.24790
H         -0.71510       -0.13690       -0.23970
H          0.19010        0.82600       -1.42090
H          1.35700       -0.52800        1.06920
H          1.76030       -1.15520       -1.96370
H          2.57590       -2.00150       -0.57500
H          2.75930        1.01980       -1.24630
H          5.14380        2.16220        2.52650
H          5.53780        0.39260        2.03100
