17
qm7 1800 -1662.72
C          1.13840       -0.25600       -0.04300
N          2.54190        0.11440       -0.11640
C          2.87980        1.36500       -0.05580
C          1.89020        2.50510        0.08520
N          4.22690        1.63620       -0.09250
C          4.93150        2.80170        0.02430
C          6.26070        2.92900       -0.02380
H          1.06310       -1.34570        0.03100
H          0.60070        0.04630       -0.94690
H          0.64960        0.16020        0.84390
H          0.89090        2.23540       -0.26040
H          2.21150        3.36470       -0.50970
H          1.83580        2.79810        1.13770
H          4.78570        0.79440       -0.19170
H          4.32220        3.68910        0.17350
H          6.91320        2.07460       -0.16840
H          6.72640        3.90390        0.08030
