18
qm7 4326 -1706.45
C          0.94970       -0.04430        0.03020
C          2.47740       -0.02270       -0.06690
C          2.93190       -0.83140       -1.28380
C          3.02130        1.40850       -0.15890
C          2.75460        2.17970        1.10560
N          2.01940        3.24240        1.08700
O          1.93480        3.75810        2.38530
H          0.60420        0.45460        0.94050
H          0.57800       -1.07400        0.05960
H          0.49000        0.45700       -0.82830
H          2.88030       -0.50360        0.83400
H          2.55400       -0.39420       -2.21410
H          2.57050       -1.86330       -1.22310
H          4.02460       -0.86360       -1.34350
H          2.58870        1.93960       -1.01380
H          4.10860        1.38550       -0.29020
H          3.21260        1.79930        2.03730
H          1.37120        4.54430        2.26030
