19
qm7 6984 -1776.98
C          2.43160       -0.47400       -1.54330
C          2.42340        0.04200       -0.11210
C          3.32420        1.26390        0.03620
N          2.74280        2.50040       -0.56330
C          3.26480        3.27420        0.59330
C          3.27310        1.97100        1.41730
N          4.54790        1.81940        2.12580
H          1.81070       -1.37120       -1.62650
H          3.44710       -0.72990       -1.86180
H          2.04060        0.27570       -2.23800
H          2.78280       -0.75430        0.55080
H          1.39350        0.26700        0.19130
H          4.34030        1.06620       -0.33510
H          1.72300        2.49590       -0.60500
H          4.24080        3.73170        0.38880
H          2.58870        4.05430        0.95660
H          2.37470        1.79770        2.01810
H          5.36850        2.03570        1.55850
H          4.70160        0.87920        2.48770
