13
qm7 5591 -1334.65
N          1.21810        0.07070        0.75790
C          2.29870       -0.03910        0.08090
N          3.03050       -1.16750       -0.15760
C          4.05090       -0.86070       -1.14810
C          5.17300        0.08850       -0.84370
C          3.90460        0.61720       -1.44140
O          2.83500        1.05310       -0.55380
H          0.94700        1.05960        0.71230
H          2.53750       -2.04510       -0.06020
H          4.12530       -1.54490       -1.98280
H          5.38540        0.31990        0.19340
H          6.05220        0.05100       -1.47560
H          3.89450        0.94160       -2.47330
