13
qm7 4427 -1376.82
C          1.39420        0.78990        0.13320
C          2.57760       -0.22200        0.02360
C          3.43940        0.95690       -0.00750
C          2.42650        1.82520        0.08730
N          2.92510        3.05950        0.08350
N          4.29080        3.01130       -0.01540
C          4.58810        1.69080       -0.07090
H          0.79700        0.80510        1.05140
H          0.67450        0.85040       -0.69070
H          2.65370       -0.84740       -0.87280
H          2.77660       -0.89120        0.86820
H          2.46870        3.96460        0.13900
H          5.62300        1.38760       -0.15310
