14
qm7 6609 -1282.03
C          4.35990       -1.06710        0.59960
N          3.59470       -0.18760       -0.29080
S          3.48840        1.44270        0.16480
O          2.60480        2.04850       -0.80780
O          3.14100        1.44610        1.56960
C          5.08080        2.10250       -0.01370
C          5.73520        1.98910       -1.17720
H          4.34300       -2.08020        0.18820
H          3.91120       -1.10530        1.59470
H          5.40180       -0.74620        0.66630
H          2.65020       -0.52390       -0.48720
H          5.50030        2.60740        0.84360
H          5.29180        1.48840       -2.03390
H          6.72900        2.40730       -1.29640
