15
qm7 6398 -1432.64
O          1.31900        1.09710       -1.87550
N          2.42480        1.59160       -1.18040
C          3.14660        0.62330       -0.53310
N          2.74980       -0.56120       -0.22500
C          4.51410        1.01950       -0.12890
C          5.68760        0.11450       -0.42640
C          5.54050        1.40750       -1.16990
H          0.58250        1.25430       -1.25320
H          2.97360        2.27340       -1.70130
H          1.80450       -0.66220       -0.60760
H          4.55050        1.54300        0.82200
H          5.49180       -0.81120       -0.95740
H          6.46390        0.03540        0.32530
H          6.22890        2.20920       -0.92930
H          5.27860        1.34360       -2.22000
