11
qm7 6413 -1148.41
C          1.98550        0.32600       -0.67840
C          2.67170       -0.00430        0.67550
C          3.36930        1.29390        0.53940
N          3.83150        2.28990        1.27110
S          3.61390        3.60850        0.18540
N          2.67330        2.84720       -1.03970
C          2.76430        1.58470       -0.66690
H          0.90170        0.47290       -0.71050
H          2.24520       -0.33790       -1.51090
H          3.35080       -0.86450        0.65850
H          2.06310       -0.09290        1.58050
