17
qm7 2509 -1701.45
C          1.01000        0.01600       -0.08230
C          2.48140        0.12780        0.09350
O          3.24950       -0.64670       -0.82870
C          3.34540        0.78620       -0.95800
C          4.52890        1.54810       -0.51600
C          4.25530        2.92030        0.03940
C          5.78660        1.08340       -0.60930
H          0.51160        0.88310        0.36240
H          0.63740       -0.88440        0.41640
H          0.72350       -0.03670       -1.13830
H          2.79030        0.13140        1.12960
H          2.85430        1.21500       -1.82620
H          3.73380        3.53310       -0.70350
H          5.17530        3.44530        0.31770
H          3.62730        2.85130        0.93360
H          5.98290        0.09460       -1.01450
H          6.64170        1.66550       -0.28340
