16
qm7 818 -1547.56
C          1.24070        0.11790       -0.82040
O          2.22960        0.24030        0.19910
C          2.96120        1.41470        0.09700
C          2.18500        2.69900        0.15980
C          4.30000        1.31600        0.06140
C          5.29710        2.42420       -0.02240
H          0.85190       -0.90460       -0.79140
H          1.67050        0.29190       -1.81310
H          0.40520        0.80140       -0.63900
H          1.35260        2.60390        0.86580
H          1.77830        2.95000       -0.82460
H          2.79060        3.54140        0.50560
H          4.72930        0.31540        0.08240
H          4.84470        3.40220       -0.20070
H          5.98980        2.23030       -0.84780
H          5.87760        2.47420        0.90390
