19
qm7 6856 -1787.4
C          0.90880       -0.02210        0.05610
C          2.41970       -0.02540        0.02500
N          2.95220       -0.00240       -1.35780
C          3.17560        1.04790        0.85650
C          4.21730       -0.03290        1.23760
C          3.15140       -1.09950        0.89830
N          3.75420       -2.13960        0.06320
H          0.53390       -0.02580        1.08540
H          0.50050       -0.90580       -0.44620
H          0.50210        0.86720       -0.43800
H          3.94790        0.21880       -1.41160
H          2.49730        0.69440       -1.94920
H          2.60860        1.41330        1.72260
H          3.56870        1.91730        0.32010
H          5.11000       -0.01960        0.60020
H          4.54170       -0.01220        2.28210
H          2.59820       -1.46310        1.77070
H          3.82190       -1.81080       -0.90730
H          3.15290       -2.96030       -0.01810
