14
qm7 176 -1313.49
C          1.06810       -0.00380        0.06790
N          2.52290        0.03040       -0.02040
C          3.08220        1.02990        0.92640
C          4.17400       -0.00460        1.26150
C          3.12450       -1.04180        0.81460
H          0.68110       -0.85500       -0.50300
H          0.64610        0.90430       -0.37630
H          0.68860       -0.08500        1.09390
H          2.44690        1.29020        1.78290
H          3.44130        1.95160        0.45940
H          5.05630        0.04820        0.61310
H          4.49130       -0.05430        2.30550
H          3.52040       -1.89250        0.25250
H          2.50350       -1.41820        1.63750
