13
qm7 3446 -1350.71
C          1.01130       -0.07380        0.06410
O          2.43060       -0.00890        0.05950
C          2.89400        1.33860        0.00000
C          4.33800        1.33860        0.00000
C          5.52830        1.33860        0.00000
C          6.96870        1.32710        0.00060
O          7.60480        2.37150       -0.03080
H          0.71480       -1.12510        0.11020
H          0.60420        0.36380       -0.85260
H          0.60640        0.44170        0.94030
H          2.51310        1.89210        0.86560
H          2.51290        1.81360       -0.91100
H          7.43920        0.33200        0.03050
