17
qm7 2918 -1702.77
C          1.86860       -3.07920        0.78840
C          1.31050       -1.69050        0.90010
C          0.32020       -1.39340        1.75970
C          1.93420       -0.65230        0.00180
O          1.57340       -0.95370       -1.34690
C          2.03840       -0.12330       -2.32660
C          2.84260        0.94090       -2.22100
H          1.76780       -3.45750       -0.23390
H          1.35580       -3.78380        1.45380
H          2.93080       -3.08340        1.05780
H         -0.12110       -2.14900        2.40050
H         -0.08580       -0.39010        1.83280
H          3.02460       -0.68170        0.11920
H          1.57730        0.35100        0.26360
H          1.64910       -0.45190       -3.28470
H          3.24930        1.28760       -1.27870
H          3.11850        1.49870       -3.11040
