18
qm7 699 -1698.71
C          0.96990       -0.10360       -0.00160
C          2.49580       -0.00090       -0.00980
C          3.05310       -0.77250       -1.21260
C          2.98830        1.46110       -0.02230
C          2.50170        2.28370        1.16650
O          4.41640        1.48640       -0.01150
H          0.54730        0.30930        0.91970
H          0.64890       -1.14970       -0.06150
H          0.53140        0.43270       -0.85050
H          2.88020       -0.49520        0.89140
H          2.72970       -0.32100       -2.15720
H          2.70970       -1.81310       -1.20050
H          4.14810       -0.79030       -1.20170
H          2.66840        1.95520       -0.94750
H          2.77290        1.80210        2.11260
H          1.41840        2.43100        1.14490
H          2.97910        3.27020        1.16840
H          4.71520        1.04770        0.80320
