11
qm7 208 -1132.01
C          0.96130       -0.00480       -0.02700
C          2.45010        0.05320       -0.15220
C          3.17520        1.12840        0.18200
C          4.64530        1.12120        0.03400
O          5.31980        2.09780        0.33600
H          0.67590       -0.81870        0.64630
H          0.51250       -0.19460       -1.00670
H          0.54250        0.92680        0.36610
H          2.93040       -0.84340       -0.53820
H          2.73960        2.04190        0.57000
H          5.09340        0.19460       -0.36010
