18
qm7 6582 -1793.06
C          0.96040        0.00810       -0.02450
C          2.46190       -0.00170       -0.02400
C          3.17120        1.14590        0.08150
C          4.66100        1.20050        0.09600
N          5.33410       -0.00730       -0.37790
C          4.69290       -1.24790        0.04700
C          3.16380       -1.32090       -0.11120
H          0.56260       -1.01120        0.01890
H          0.57780        0.47520       -0.93660
H          0.56840        0.54840        0.84320
H          2.65180        2.09780        0.16840
H          4.97980        2.02920       -0.55010
H          4.99730        1.45310        1.10710
H          5.38440        0.02540       -1.39060
H          4.95880       -1.45600        1.08860
H          5.12850       -2.06510       -0.53730
H          2.76820       -1.98450        0.66730
H          2.91450       -1.77030       -1.07980
