19
qm7 6794 -1800.01
C          0.96830        0.02880        0.08390
C          2.49380        0.02320       -0.05380
C          3.02120       -1.33200       -0.59630
N          2.71740       -1.55560       -2.01750
C          3.18610       -0.41590       -2.81780
C          2.67290        0.94290       -2.29590
N          2.96040        1.17140       -0.86590
H          0.61610        0.99010        0.47460
H          0.64830       -0.74850        0.78680
H          0.45790       -0.15790       -0.86650
H          2.90470        0.15940        0.95410
H          2.59310       -2.15450       -0.01210
H          4.10890       -1.37700       -0.45410
H          3.17610       -2.40790       -2.33520
H          4.28310       -0.41020       -2.83200
H          2.85260       -0.55100       -3.85170
H          3.14230        1.74730       -2.87390
H          1.59480        1.03000       -2.47410
H          3.97390        1.22660       -0.76410
