15
qm7 2451 -1573.16
C          1.06870       -0.07810       -0.03260
C          2.53240        0.15150        0.02360
C          3.19440        1.25940       -0.33210
O          4.57790        1.17470       -0.21060
C          4.80790       -0.15200        0.38350
C          4.55090       -1.36710       -0.46300
C          3.46910       -0.88230        0.46660
H          0.84900       -1.05230       -0.48220
H          0.56460        0.68670       -0.63330
H          0.64120       -0.05980        0.97530
H          2.82470        2.19370       -0.71450
H          5.49440       -0.22900        1.21720
H          5.06840       -2.28210       -0.20070
H          4.42440       -1.22880       -1.53040
H          3.24670       -1.42580        1.37500
