19
qm7 1538 -1789.77
C          0.93810       -0.14910       -0.11350
C          2.44020        0.15700       -0.07940
N          3.07090       -0.47250       -1.24380
C          2.83230        1.62970       -0.02060
C          1.93850        2.63810       -0.07420
C          4.32500        1.85840        0.15980
N          4.72890        3.26220        0.22450
H          0.43220        0.26660        0.76420
H          0.76230       -1.23070       -0.10590
H          0.45850        0.25620       -1.01190
H          2.84430       -0.32300        0.82090
H          2.64880       -0.08760       -2.08830
H          2.84370       -1.46570       -1.24930
H          0.87230        2.47680       -0.18250
H          2.24710        3.67660        0.01110
H          4.87470        1.39160       -0.66460
H          4.64450        1.37020        1.08750
H          4.56610        3.67530       -0.69250
H          5.73630        3.29860        0.36630
