15
qm7 4091 -1486.56
C          0.90020       -0.06750       -0.46030
C          2.15860        0.57200        0.01270
N          3.40270       -0.19070        0.03950
C          3.26730        0.90260       -0.95490
C          4.10160        2.11570       -0.73620
N          4.97570        2.05270        0.30420
O          3.99420        3.09540       -1.45950
H          0.16940        0.70090       -0.73120
H          0.46690       -0.68230        0.33500
H          1.06100       -0.70570       -1.33570
H          1.99110        1.23790        0.85230
H          3.29560       -1.09280       -0.42930
H          3.17210        0.59280       -1.98930
H          4.97180        1.23040        0.89720
H          5.54210        2.85610        0.53600
