17
qm7 4873 -1608.5
C          2.24410        3.48550       -1.75910
C          3.15970        2.51480       -1.04030
O          4.43300        3.13300       -0.87490
C          5.33360        2.28470       -0.16570
C          6.69990        2.96790       -0.07460
N          6.75440        4.33000       -0.07030
N          7.80430        2.29620        0.00270
H          1.25910        3.04050       -1.92960
H          2.67170        3.77930       -2.72400
H          2.11950        4.40320       -1.17360
H          3.26920        1.60030       -1.63280
H          2.73810        2.26130       -0.06170
H          5.44470        1.32750       -0.68680
H          4.96890        2.11540        0.85320
H          5.97550        4.76760       -0.55600
H          7.66670        4.68330       -0.33460
H          7.61640        1.28870       -0.00300
