13
qm7 3043 -1421.32
C          1.49220       -0.92060       -0.40970
C          2.77770       -0.55280       -0.34780
C          3.16170        0.84650        0.01430
O          2.30310        1.70220        0.22850
C          4.64070        1.18140        0.03230
C          5.40710        0.33390        0.95740
C          6.04060       -0.35190        1.71440
H          1.21470       -1.93550       -0.67340
H          0.68880       -0.21960       -0.19740
H          3.57470       -1.25530       -0.55980
H          4.74810        2.23240        0.32440
H          5.02410        1.09100       -0.99010
H          6.60310       -0.95330        2.39110
