16
qm7 5438 -1559.34
C          1.89560       -0.77260       -0.66640
O          3.22410       -0.51040       -0.23080
N          3.45910        0.86930       -0.33410
C          4.66590        1.11430        0.05770
C          5.21120        2.48610        0.06420
C          6.46710        2.70910        0.47460
C          7.09260        4.06570        0.51060
H          1.71130       -1.84710       -0.58660
H          1.77250       -0.47020       -1.71090
H          1.17730       -0.24340       -0.03260
H          5.34050        0.31060        0.40340
H          4.55000        3.27550       -0.27410
H          7.09520        1.88510        0.80570
H          6.40730        4.84680        0.16620
H          7.98000        4.08390       -0.12880
H          7.39950        4.30720        1.53290
