14
qm7 1812 -1366.13
C          1.54380        0.08850        0.40400
N          2.81280       -0.22270       -0.27900
C          2.86060       -1.67970       -0.57650
C          3.05380       -2.51810        0.62380
N          3.19980       -3.18650        1.56210
N          3.05570        0.57570       -1.35850
C          4.16840        1.22370       -1.24410
H          1.51670        1.15090        0.67220
H          1.43570       -0.47210        1.33810
H          0.67980       -0.11870       -0.23780
H          3.71180       -1.86840       -1.24380
H          1.96320       -1.99080       -1.12550
H          4.48540        1.90640       -2.04790
H          4.84140        1.13420       -0.37280
