12
qm7 527 -1256.19
N          1.01940       -0.02960       -0.02560
C          2.35640        0.05840       -0.00930
C          3.19090        1.15100       -0.00060
C          4.52300        0.66700        0.01340
C          4.45920       -0.70900        0.01250
N          3.13500       -1.06700       -0.00150
H          0.43660        0.80270        0.00690
H          0.50470       -0.90280        0.01850
H          2.88050        2.18670       -0.00490
H          5.42880        1.25890        0.02190
H          5.23570       -1.46170        0.01940
H          2.78350       -2.01270       -0.00810
