14
qm7 6234 -1409.01
O          2.56440       -0.40610       -1.54560
C          2.11940        0.03260       -0.26800
C          2.69860        1.39760        0.02780
C          1.90500        2.46410        0.21300
N          4.06320        1.57190        0.13000
C          5.04840        0.63870       -0.03850
O          6.23850        0.90710        0.08600
H          2.09080       -1.23260       -1.74020
H          2.43320       -0.69230        0.49020
H          1.02340        0.05540       -0.28030
H          0.82440        2.38450        0.14240
H          2.30290        3.45050        0.42820
H          4.42320        2.49800        0.32710
H          4.70370       -0.37720       -0.27530
