14
qm7 4292 -1436.41
C          0.90130        0.07300       -0.09310
C          2.23470        0.13160       -0.16800
C          3.01350        1.37980       -0.03760
N          4.30810        1.39490       -0.04200
O          4.70440        2.74530        0.11970
C          3.57400        3.56020       -0.20080
C          2.37940        2.71400        0.14810
H          0.39400       -0.88260       -0.19310
H          0.27640        0.94350        0.07260
H          2.82430       -0.76740       -0.32410
H          3.60980        3.79740       -1.26980
H          3.60930        4.49070        0.37230
H          1.52840        2.90090       -0.50860
H          2.09130        2.82860        1.19740
