20
qm7 5070 -1860.47
C          0.68670        0.21780        1.19290
N          1.90620        0.70930        1.82600
C          2.80980        1.39460        0.88300
C          2.17570        2.64370        0.26220
C          4.13530        1.74360        1.60020
C          4.00600        2.70890        2.77910
O          3.21560        2.15250        3.81970
H          0.12300       -0.38150        1.91600
H          0.90650       -0.42010        0.33050
H          0.03250        1.03820        0.88250
H          2.40250       -0.09830        2.21370
H          3.06310        0.70030        0.07060
H          1.75510        3.30890        1.02320
H          1.37060        2.37730       -0.43050
H          2.91730        3.21120       -0.31100
H          4.83290        2.17300        0.86970
H          4.59110        0.81090        1.95920
H          3.56550        3.66300        2.47620
H          4.99660        2.92050        3.19360
H          2.42250        1.77220        3.38260
