18
qm7 4549 -1716.23
C          1.85330       -0.01100        0.52900
C          2.76700        0.09490       -0.69200
C          2.30940       -0.87710       -1.79090
O          3.28480       -0.96580       -2.82630
C          2.76990        1.51830       -1.20760
C          3.89450        2.45290       -0.84410
N          3.77780        1.90820       -2.19520
H          2.17360        0.68230        1.31390
H          1.87040       -1.02390        0.94320
H          0.81730        0.23530        0.27240
H          3.78570       -0.18210       -0.38900
H          1.36260       -0.55780       -2.23940
H          2.17450       -1.88500       -1.38680
H          3.66380       -0.06780       -2.93250
H          1.77630        1.92430       -1.36270
H          4.72240        2.07820       -0.25470
H          3.67640        3.50660       -0.72290
H          3.41450        2.62240       -2.83260
