14
qm7 6311 -1411.06
O          1.28440       -0.00430        0.83630
C          2.06720        0.14500       -0.27250
O          1.89220       -0.54670       -1.26890
C          3.15730        1.26070       -0.07630
C          2.80320        2.69050       -0.53340
C          3.46380        3.13900        0.77760
N          3.17060        1.79790        1.33810
H          1.59600        0.66280        1.49290
H          4.15130        0.93270       -0.40760
H          1.72820        2.90000       -0.58800
H          3.28410        3.03560       -1.45210
H          4.53520        3.35350        0.68860
H          2.97500        3.96880        1.29460
H          3.93380        1.42680        1.90970
