17
qm7 6786 -1744.84
C          2.10710       -0.19370       -0.05020
C          0.77390       -0.81130        0.22310
C         -0.39910       -1.37510       -0.51930
C         -1.62710       -0.50130       -0.23730
C         -1.51050        0.74320        0.28600
C         -0.14190        1.39320        0.52070
C          0.88770        0.64300       -0.26790
H          2.65420       -0.54240       -0.91920
H          2.74300        0.05380        0.79250
H          0.63190       -1.01720        1.28580
H         -0.59780       -2.39040       -0.15920
H         -0.21780       -1.43190       -1.59830
H         -2.60540       -0.92870       -0.43310
H         -2.39380        1.33110        0.51440
H          0.08760        1.41000        1.59190
H         -0.17810        2.43020        0.16970
H          0.73810        0.87420       -1.32440
