22
qm7 1192 -2063.98
C          1.09060        0.04520       -0.64020
C          2.59430        0.21380       -0.49190
C          2.96720        1.66300       -0.17610
C          4.48420        1.82600       -0.02540
C          4.90360        3.26290        0.32620
C          6.40940        3.33730        0.57850
N          4.54080        4.18930       -0.74710
H          0.84740       -0.99540       -0.87550
H          0.70290        0.67540       -1.44680
H          0.57300        0.31440        0.28580
H          3.08470       -0.10190       -1.42030
H          2.95380       -0.44680        0.30600
H          2.47210        1.97570        0.75120
H          2.59500        2.31210       -0.97720
H          4.97980        1.50640       -0.95170
H          4.83450        1.14960        0.76520
H          4.38220        3.57370        1.23900
H          6.98140        3.03620       -0.30640
H          6.69570        2.67740        1.40480
H          6.71370        4.35500        0.84820
H          5.02070        3.92610       -1.60710
H          4.86760        5.12690       -0.51720
