20
qm7 4465 -1861.53
C          0.07070       -0.74610        1.14600
C          1.27340       -0.89580        0.21360
C          1.43700       -2.36610       -0.17980
N          1.13600       -0.10620       -1.01970
C          1.14320        1.34690       -0.77380
C          1.11250        2.08970       -2.11710
O          0.01350        1.62810       -2.89940
H          0.00580        0.26380        1.56200
H          0.14790       -1.43720        1.99270
H         -0.87000       -0.96160        0.62430
H          2.18150       -0.58950        0.74770
H          0.56100       -2.73620       -0.72590
H          1.56790       -2.99360        0.70910
H          2.31820       -2.51020       -0.81570
H          1.91570       -0.33450       -1.64010
H          2.02920        1.65140       -0.20610
H          0.24530        1.62670       -0.21280
H          2.03260        1.91330       -2.68330
H          1.00030        3.16650       -1.96200
H         -0.10180        0.68990       -2.64240
