15
qm7 6229 -1465.83
O          4.22360       -1.14110       -0.59180
C          3.16930       -0.57720        0.16930
C          3.29950        0.91210        0.25580
C          4.23820        1.65650       -0.34650
N          4.37340        3.01940       -0.26830
C          5.27980        3.84420       -0.87210
N          6.21570        3.56790       -1.70760
H          4.09660       -2.10440       -0.57790
H          3.19680       -1.00730        1.17540
H          2.21710       -0.83860       -0.30250
H          2.54880        1.40080        0.87030
H          4.98930        1.17080       -0.96520
H          3.69670        3.47320        0.33640
H          5.14350        4.89590       -0.56570
H          6.21470        2.56400       -1.90080
