13
qm7 102 -1310.13
C          1.62120       -0.96060        0.74600
C          2.39540       -0.29890       -0.12490
C          3.30500        0.83700        0.24130
C          4.73660        0.50340       -0.06360
C          5.50080        1.17300       -0.93590
H          0.98120       -1.77210        0.41350
H          1.60850       -0.71180        1.80250
H          2.36870       -0.58350       -1.17500
H          3.22290        1.07680        1.30800
H          2.98600        1.73030       -0.30850
H          5.16720       -0.33730        0.47780
H          5.11920        2.02050       -1.49730
H          6.53270        0.88160       -1.10750
