15
qm7 6606 -1418.13
C          2.55740       -1.05350        0.39910
N          2.45860        0.16510       -0.37060
C          3.38440        1.17960       -0.38340
S          3.09650        2.47750       -1.40300
N          4.46100        0.98010        0.47280
C          5.81720        1.27710        0.11820
C          5.11880        2.03510        1.18720
H          1.64800       -1.63770        0.24350
H          2.66660       -0.80990        1.45880
H          3.42730       -1.62120        0.06020
H          1.67810        0.27910       -1.00690
H          5.97390        1.73690       -0.84810
H          6.51150        0.49440        0.39360
H          5.31660        1.79230        2.22150
H          4.78010        3.04210        0.98990
