12
qm7 3963 -1262.57
C          1.00830       -0.00520       -0.00620
C          2.49190        0.06250       -0.00080
C          3.25030        1.15770        0.00240
C          4.61430        0.64150        0.00920
O          5.62090        1.32380        0.02380
N          4.52390       -0.72080       -0.00190
O          3.17860       -1.14400        0.00080
H          0.55920        0.99320       -0.00250
H          0.64880       -0.54150        0.87760
H          0.65510       -0.53220       -0.89800
H          2.97960        2.19550        0.00310
H          5.28150       -1.38510        0.02250
