19
qm7 6834 -1786.83
C          1.19150       -0.12740       -0.11650
C          2.65990        0.12470       -0.14120
N          3.46780       -0.36310       -1.24930
C          3.32430        1.10640       -1.10030
C          2.49750        1.84250       -2.12520
C          4.54280        1.86480       -0.60440
N          5.60080        1.75580       -1.60550
H          0.67830        0.69620        0.38930
H          0.98040       -1.04730        0.43910
H          0.75830       -0.23970       -1.11500
H          3.09420        0.00740        0.84730
H          2.89340       -0.69560       -2.02420
H          1.72790        1.21290       -2.58240
H          3.12950        2.21790       -2.93710
H          1.99960        2.69860       -1.65840
H          4.90360        1.45250        0.34490
H          4.29630        2.91810       -0.43310
H          5.70450        0.75950       -1.81430
H          6.48190        2.04750       -1.18870
