13
qm7 3526 -1371.21
O          0.97910       -0.15010       -0.04900
C          2.19030       -0.06660       -0.00520
C          3.17970       -1.21520        0.05380
C          4.47730       -0.38490       -0.03880
C          4.31320        0.71990       -1.14580
C          3.23760        1.13440       -0.07990
O          4.31550        0.77380        0.92320
H          3.06140       -1.87840       -0.80500
H          3.10400       -1.74500        1.00500
H          5.44580       -0.87930        0.04580
H          3.93680        0.38550       -2.11460
H          5.15510        1.40410       -1.26910
H          2.90120        2.16580       -0.01590
