18
qm7 1360 -1766.88
C          1.06180        0.51290        0.15420
C          2.40070        0.50240        0.10470
C          3.28590        1.52320        0.75090
N          4.08140        2.19280       -0.27560
C          5.00430        3.18030        0.28970
C          6.44110        2.80060        0.50630
C          6.07550        3.74750       -0.59920
H          0.48400       -0.26410       -0.33680
H          0.51480        1.29170        0.67680
H          2.90390       -0.30000       -0.43060
H          3.94190        1.01250        1.46600
H          2.69140        2.25690        1.30940
H          3.44180        2.64230       -0.93060
H          4.56470        3.87870        0.99950
H          6.75810        1.80130        0.23040
H          6.94700        3.20400        1.37520
H          6.33050        4.79380       -0.47900
H          6.14850        3.38580       -1.61840
