16
qm7 901 -1551.16
O          0.55690        0.12320       -0.45310
C          1.92020       -0.28290       -0.40340
C          2.78660        0.94410       -0.15330
C          4.28400        0.64040       -0.18180
C          4.71780       -0.28570        0.91810
C          5.30500       -1.47190        0.71310
H          0.02690       -0.68040       -0.59160
H          2.17460       -0.75510       -1.35820
H          2.02740       -1.01930        0.39930
H          2.50600        1.39940        0.80450
H          2.56100        1.70130       -0.91450
H          4.83660        1.58140       -0.07000
H          4.55650        0.23420       -1.16430
H          4.54690        0.04920        1.93960
H          5.50710       -1.84560       -0.28600
H          5.60400       -2.09490        1.55060
