15
qm7 2556 -1584.73
C          0.91900       -0.00400        0.08150
C          2.44020       -0.00210        0.08030
O          2.92060       -0.00230        1.41170
C          3.03130        1.16370       -0.66190
C          3.80750        0.72130       -1.66440
C          3.80850       -0.72120       -1.66440
C          3.03390       -1.16570       -0.66330
H          0.50380       -0.00240       -0.93250
H          0.52940        0.87230        0.61270
H          0.53170       -0.88360        0.60880
H          3.89120       -0.00080        1.35100
H          2.84770        2.19850       -0.41400
H          4.35840        1.33070       -2.36530
H          4.36020       -1.32900       -2.36540
H          2.85230       -2.20050       -0.41600
