15
qm7 6950 -1528.46
C          1.59400       -0.56460       -1.01250
C          2.05180        0.23050       -0.03520
C          3.17110        1.22400       -0.11260
C          3.75270        1.62440       -1.49130
N          3.99610        3.10280       -1.42880
C          3.32110        3.46100       -0.38080
N          2.67660        2.50790        0.34320
H          0.77030       -1.24790       -0.82460
H          2.00880       -0.56340       -2.01470
H          1.57420        0.14740        0.93970
H          3.98700        0.90210        0.54660
H          3.06760        1.43210       -2.32350
H          4.69360        1.09910       -1.68520
H          3.25610        4.49310       -0.00030
H          2.60560        2.65040        1.34240
