10
qm7 85 -980.76
C         -1.24010       -0.01210       -0.16530
C         -0.40030       -1.22560        0.12210
C          0.92900       -0.60650       -0.05940
N          0.94840        0.68180       -0.05400
O         -0.39240        1.10570        0.11940
H         -1.53730        0.03880       -1.21850
H         -2.13680        0.03220        0.45900
H         -0.57580       -2.05080       -0.56960
H         -0.48960       -1.57400        1.15450
H          1.83310       -1.22510       -0.14280
