10
qm7 626 -1151.7
C          0.97350       -0.00540       -0.00000
C          2.31400        0.00000        0.00000
C          3.01710       -1.21760        0.00000
C          3.61210       -2.24830        0.00000
C          3.00720        1.24580        0.00000
C          3.59770        2.29170        0.00000
H          0.40330        0.91820       -0.00000
H          0.41020       -0.93340       -0.00000
H          4.14750       -3.16890       -0.00000
H          4.12640        3.21570        0.00000
