11
qm7 113 -1153.43
C          1.74800       -0.62170        1.05440
C          2.47560       -0.09210        0.06150
C          3.15490        1.24440        0.12350
C          4.60490        1.07530       -0.03930
C          5.79180        0.94330       -0.17170
H          1.28100       -1.59540        0.94100
H          1.60730       -0.10510        1.99880
H          2.58470       -0.65180       -0.86560
H          2.94330        1.75130        1.07200
H          2.75980        1.88060       -0.67640
H          6.84440        0.82270       -0.28760
