15
qm7 5409 -1448.32
C          1.74720        0.90880        1.88190
O          2.06630        1.51300        0.62100
C          3.24720        1.20110        0.02840
N          3.45400        1.76520       -1.11210
N          4.07630        0.32840        0.70740
C          4.83770       -0.62930       -0.11120
C          5.52570        0.52260        0.53570
H          0.74380        1.23860        2.16590
H          2.45130        1.24050        2.65170
H          1.73790       -0.18200        1.79670
H          2.62040        2.33900       -1.28350
H          4.63700       -0.59530       -1.17380
H          4.90970       -1.60540        0.34560
H          6.08180        0.35470        1.44670
H          5.81510        1.37110       -0.06970
