18
qm7 3980 -1716.28
C          1.02320        0.06770       -0.11630
C          2.50790        0.01120       -0.02170
C          3.37380       -0.70460       -1.02900
N          2.79340       -1.39760       -2.17770
C          3.41950        0.81220       -0.92750
C          2.90170        1.69640       -2.01620
O          4.55720        1.38090       -0.25170
H          0.64420        0.88620        0.50440
H          0.59250       -0.86550        0.26090
H          0.65140        0.22020       -1.13210
H          2.80800       -0.07300        1.01890
H          4.23000       -1.23580       -0.61740
H          1.99270       -0.90270       -2.56470
H          2.43980       -2.31750       -1.89940
H          2.03530        1.28540       -2.54270
H          3.68690        1.86790       -2.76170
H          2.60950        2.66820       -1.60450
H          5.25380        0.72200       -0.09610
