17
qm7 1786 -1628.06
C          1.01230       -0.01900       -0.10160
N          2.46670        0.01220       -0.07130
C          2.96070        1.38570        0.00000
C          4.40470        1.38570        0.00000
C          5.59500        1.38570        0.00000
C          7.03910        1.38570        0.00000
N          7.53920        2.74120       -0.18090
H          0.67100       -1.05790       -0.14690
H          0.61640        0.50340       -0.97870
H          0.58710        0.42720        0.80320
H          2.83510       -0.42250       -0.91590
H          2.59310        1.86780        0.91310
H          2.59150        1.96670       -0.85330
H          7.42170        0.74800       -0.80370
H          7.42220        0.98600        0.94440
H          7.18990        3.10340       -1.06630
H          8.55260        2.71200       -0.25960
