15
qm7 7097 -1645.08
C          1.06010        0.00230        0.28140
C          2.37600        0.00180        0.04610
C          3.23310       -1.22120       -0.21690
C          4.60590       -0.66690       -0.50080
C          4.62530        0.67080       -0.39950
C          3.29640        1.12930       -0.04900
C          3.00570        2.41950        0.16260
H          0.50360        0.91800        0.44510
H          0.50130       -0.92720        0.30950
H          2.86460       -1.78420       -1.08010
H          3.26650       -1.87310        0.66270
H          5.45850       -1.28170       -0.75050
H          5.48330        1.30900       -0.55320
H          2.00890        2.74610        0.43530
H          3.76450        3.19020        0.07440
