13
qm7 6514 -1300.91
C          0.87650       -0.16770        0.02880
C          2.38990       -0.01810       -0.01610
C          2.80360        1.41160       -0.02720
C          3.05460        2.28590        1.01360
N          3.42710        3.56540        0.63930
N          3.46990        3.69460       -0.67640
S          3.06480        2.28390       -1.48220
H          0.60160       -1.22690        0.05090
H          0.40570        0.28670       -0.84900
H          0.45710        0.31040        0.92050
H          2.78260       -0.54060       -0.89700
H          2.82600       -0.51470        0.85950
H          2.98250        2.05060        2.06680
