17
qm7 2838 -1723.6
C          1.52840        0.60800       -1.51260
C          1.79230        1.19040       -0.13070
C          2.89630        2.22200       -0.14750
C          2.48090        3.61560       -0.47480
O          1.32210        3.91670       -0.73910
C          4.16970        1.89640        0.14800
C          5.38760        2.76180        0.20710
H          0.71500       -0.12280       -1.46280
H          2.41590        0.09570       -1.89920
H          1.24260        1.38440       -2.22860
H          2.05120        0.37250        0.55400
H          0.86880        1.62610        0.27020
H          3.26910        4.38040       -0.46790
H          4.37760        0.85070        0.37850
H          5.19790        3.81700        0.00650
H          6.12360        2.40960       -0.52330
H          5.83840        2.68940        1.20210
