17
qm7 3678 -1642.19
O          2.79610        4.00850       -1.00130
C          2.92220        2.84790       -1.81680
C          3.28080        1.63980       -0.95660
C          4.64740        1.76890       -0.34720
C          5.53940        0.55900       -0.22680
C          5.88550        1.65140       -1.19700
O          6.99310        2.48490       -0.82660
H          2.65500        4.76030       -1.60320
H          3.68490        3.03510       -2.57910
H          1.96120        2.67940       -2.31330
H          3.21970        0.73470       -1.57060
H          2.55460        1.53700       -0.14360
H          4.65130        2.48710        0.46670
H          5.20350       -0.38570       -0.64060
H          6.14590        0.45330        0.66580
H          5.76750        1.43240       -2.25250
H          6.90840        2.82480        0.07930
