16
qm7 3908 -1633.93
C          0.99040       -0.01260        0.05670
C          2.50680       -0.00370        0.06520
C          3.10400        1.16670        0.83570
C          4.48440        0.65510        1.24320
C          4.27800       -0.83680        1.32810
O          5.06020       -1.65260        1.78260
N          3.06440       -1.13920        0.74220
H          0.61300       -0.88910       -0.48070
H          0.59950        0.88420       -0.43380
H          0.58390       -0.05300        1.07320
H          2.88940       -0.01670       -0.96280
H          2.51700        1.38230        1.73780
H          3.15470        2.08370        0.24120
H          5.23230        0.86640        0.47330
H          4.80020        1.06420        2.20560
H          2.84280       -2.10790        0.54620
