29
Carboxy
C 2.9053 -1.2220 0.3656
C 2.7858 0.0896 -0.4095
C 1.9577 1.1543 0.3317
C 0.4979 0.7508 0.6302
C -0.3442 0.4095 -0.6245
C -1.8032 0.0554 -0.2582
C -1.9268 -1.2966 0.4632
C -3.3902 -1.6833 0.6591
C -0.3475 1.5639 -1.5918
O 0.1036 1.4108 -2.7585
O -0.8511 2.8017 -1.2009
H 1.9277 -1.7464 0.4007
H 3.2629 -1.0314 1.3998
H 3.6340 -1.8868 -0.1442
H 2.3608 -0.1063 -1.4160
H 3.8089 0.4956 -0.5647
H 2.4601 1.3889 1.2955
H 1.9677 2.0914 -0.2652
H 0.0147 1.5913 1.1753
H 0.5101 -0.1102 1.3283
H 0.1007 -0.4753 -1.1300
H -2.4024 0.0029 -1.1953
H -2.2414 0.8572 0.3768
H -1.4464 -1.2448 1.4623
H -1.4241 -2.0903 -0.1311
H -3.4499 -2.6546 1.1938
H -3.9152 -0.9124 1.2626
H -3.8974 -1.7885 -0.3236
H -0.8581 3.5856 -1.8423
CCCCC(CCC)C(=O)O