35
Carboxy
C -3.9223 0.8501 0.5978
C -2.9852 -0.3597 0.7080
C -2.0450 -0.5891 -0.5105
C -2.7392 -0.3245 -1.8261
O -2.7621 0.8339 -2.3225
O -3.4028 -1.3629 -2.4727
C -0.6479 0.1096 -0.4223
C 0.2913 -0.6171 0.5777
C 1.7349 -0.0758 0.6043
C 2.5154 -0.3865 -0.6850
C 3.9879 0.0344 -0.5857
C 4.7544 -0.8366 0.3618
O 5.1117 -1.9923 0.0084
O 5.0479 -0.3791 1.6425
C -0.7456 1.5828 -0.1084
O -0.7086 2.4290 -1.0415
O -0.8809 2.0154 1.2087
H -4.6844 0.6792 -0.1915
H -3.3678 1.7802 0.3680
H -4.4552 0.9909 1.5617
H -2.3938 -0.2690 1.6418
H -3.6254 -1.2608 0.8327
H -1.8338 -1.6821 -0.5202
H -3.8901 -1.2037 -3.3465
H -0.1829 0.0072 -1.4268
H -0.1213 -0.5350 1.6053
H 0.3294 -1.7017 0.3349
H 2.2517 -0.5544 1.4638
H 1.7357 1.0194 0.7907
H 2.4519 -1.4719 -0.9201
H 2.0653 0.1732 -1.5312
H 4.4531 -0.0401 -1.5925
H 4.0594 1.0960 -0.2635
H 5.5548 -0.9611 2.2985
H -0.9505 3.0020 1.4270
CCC(C(=O)O)C(CCCCC(=O)O)C(=O)O