35
Carboxy
C -4.2648 0.0957 -0.6557
C -3.0444 -0.3830 0.1329
C -1.9091 0.6666 0.1577
C -0.6451 0.1393 0.8746
C 0.0722 -0.9781 0.0905
C 1.4970 -1.2638 0.6423
C 2.6120 -0.6090 -0.2066
C 2.5688 0.9239 -0.1809
C 3.7542 1.4918 -0.8954
O 4.8072 1.7609 -0.2578
O 3.7072 1.6813 -2.2730
C 1.7401 -2.7495 0.6952
O 1.9829 -3.3116 1.7969
O 1.6974 -3.5057 -0.4732
C -2.3692 1.9347 0.8291
O -2.7366 1.9212 2.0354
O -2.3879 3.1278 0.1134
H -3.9721 0.3700 -1.6915
H -5.0173 -0.7195 -0.7046
H -4.7334 0.9726 -0.1614
H -2.6859 -1.3143 -0.3523
H -3.3552 -0.6378 1.1698
H -1.6348 0.9156 -0.8920
H -0.9137 -0.2398 1.8857
H 0.0549 0.9887 1.0218
H -0.5526 -1.8946 0.1673
H 0.1237 -0.7179 -0.9895
H 1.5804 -0.8758 1.6834
H 3.5985 -0.9378 0.1922
H 2.5414 -0.9606 -1.2604
H 2.5637 1.2873 0.8699
H 1.6495 1.2872 -0.6867
H 4.5068 2.0497 -2.7741
H 1.8589 -4.5054 -0.4512
H -2.6948 3.9897 0.5483
CCC(CCC(CCC(=O)O)C(=O)O)C(=O)O