35
Carboxy
C -4.1177 0.9542 1.7328
C -3.8236 1.0773 0.2381
C -2.7939 0.0466 -0.2506
C -1.3784 0.3139 0.2996
C -0.2969 -0.5688 -0.3759
C -0.6725 -2.0277 -0.2493
O -0.7549 -2.5687 0.8868
O -0.9307 -2.7766 -1.3931
C 1.1351 -0.3296 0.2044
C 1.6199 1.1352 0.0293
C 3.0075 1.4126 0.6431
C 4.1308 1.0385 -0.2759
O 4.2865 1.6509 -1.3663
O 5.0087 0.0193 0.0795
C 2.1163 -1.2837 -0.4339
O 2.3172 -1.2541 -1.6786
O 2.7979 -2.2047 0.3556
H -4.9481 1.6401 2.0029
H -4.4206 -0.0841 1.9854
H -3.2278 1.2368 2.3325
H -4.7723 0.9163 -0.3184
H -3.4728 2.1074 0.0111
H -2.7627 0.0930 -1.3612
H -3.1337 -0.9724 0.0354
H -1.3615 0.1411 1.3973
H -1.1540 1.3826 0.1094
H -0.2783 -0.3092 -1.4585
H -1.1846 -3.7550 -1.3268
H 1.1036 -0.5459 1.2961
H 1.6004 1.4255 -1.0445
H 0.9211 1.8101 0.5624
H 3.1139 0.8777 1.6117
H 3.0950 2.4997 0.8586
H 5.7708 -0.2468 -0.5324
H 3.4602 -2.8514 -0.0557
CCCCC(C(=O)O)C(CCC(=O)O)C(=O)O