32
Carboxy
C -3.6619 1.6379 0.0126
C -2.2315 1.1244 -0.1556
C -1.8929 0.0006 0.8507
C -0.3763 -0.2924 0.9108
C 0.2308 -0.7565 -0.4283
C 1.6911 -1.2277 -0.2884
C 2.6851 -0.1096 0.0999
C 4.1004 -0.6784 0.2503
C 2.6837 1.0078 -0.9083
O 3.0347 0.7933 -2.1004
O 2.2774 2.2821 -0.5250
C -2.6801 -1.2599 0.5897
O -3.0278 -1.9900 1.5562
O -2.9896 -1.6472 -0.7118
H -3.8472 2.4613 -0.7090
H -3.8141 2.0286 1.0411
H -4.3946 0.8272 -0.1841
H -1.5391 1.9803 0.0013
H -2.0982 0.7701 -1.2004
H -2.1774 0.3678 1.8629
H 0.1388 0.6329 1.2458
H -0.1938 -1.0690 1.6863
H -0.3559 -1.6131 -0.8210
H 0.1714 0.0586 -1.1796
H 2.0058 -1.6748 -1.2574
H 1.7335 -2.0391 0.4714
H 2.3982 0.3031 1.0904
H 4.1167 -1.4574 1.0423
H 4.8075 0.1271 0.5437
H 4.4483 -1.1320 -0.7029
H 2.2612 3.0446 -1.1915
H -3.5044 -2.5008 -0.8916
CCC(CCCC(C)C(=O)O)C(=O)O