35
Carboxy
C 4.1526 -1.4443 1.1108
C 3.4990 -0.2512 0.4050
C 1.9614 -0.3390 0.4971
C 1.2760 0.9270 -0.0484
C -0.2399 0.9370 0.2054
C -0.9880 -0.1066 -0.6485
C -2.5284 -0.0079 -0.5650
C -3.0518 -0.2231 0.8718
C -4.5371 -0.4234 0.8877
O -5.3031 0.5407 1.1557
O -5.0710 -1.6685 0.5709
C -3.0251 1.2835 -1.1672
O -3.2578 1.3466 -2.4042
O -3.1878 2.4190 -0.3773
C 3.9616 -0.1836 -1.0260
O 3.7076 -1.1257 -1.8249
O 4.6708 0.9280 -1.4702
H 5.2593 -1.3681 1.0459
H 3.8303 -2.4020 0.6477
H 3.8701 -1.4548 2.1851
H 3.8339 0.6704 0.9311
H 1.6097 -1.2327 -0.0620
H 1.6727 -0.4679 1.5637
H 1.7129 1.8169 0.4556
H 1.4711 1.0295 -1.1381
H -0.6130 1.9526 -0.0429
H -0.4319 0.7599 1.2852
H -0.6829 0.0026 -1.7128
H -0.6887 -1.1267 -0.3260
H -2.9262 -0.8412 -1.1884
H -2.7878 0.6384 1.5226
H -2.5770 -1.1283 1.3084
H -6.0730 -1.8173 0.5635
H -3.5061 3.2917 -0.7809
H 4.9876 0.9924 -2.4302
CC(CCCCC(CC(=O)O)C(=O)O)C(=O)O