35
Carboxy
O 5.8557 1.4404 0.0186
C 4.8379 1.9291 -0.5410
O 4.9719 2.6453 -1.7263
C 3.4793 1.7002 0.0413
C 2.8538 0.4293 -0.5409
C 1.4578 0.1838 0.0450
C 0.8262 -1.0854 -0.5510
C -0.5186 -1.4594 0.1149
C -1.6598 -0.5033 -0.3052
C -2.9676 -0.7861 0.4575
C -4.0947 0.1729 0.0521
C -3.8343 1.5690 0.5290
O -3.4426 2.4514 -0.2808
O -3.9996 1.8834 1.8742
C -0.8665 -2.8844 -0.2300
O -1.0432 -3.2255 -1.4312
O -0.9970 -3.8286 0.7837
H 5.8833 2.7951 -2.1423
H 3.5616 1.6097 1.1467
H 2.8354 2.5769 -0.1880
H 3.5089 -0.4402 -0.3107
H 2.7760 0.5305 -1.6464
H 0.8206 1.0650 -0.1775
H 1.5397 0.0740 1.1487
H 1.5424 -1.9255 -0.4057
H 0.6824 -0.9519 -1.6463
H -0.3914 -1.3958 1.2189
H -1.3585 0.5423 -0.0933
H -1.8400 -0.5884 -1.3997
H -2.7908 -0.7140 1.5534
H -3.3063 -1.8212 0.2371
H -5.0461 -0.1797 0.5048
H -4.2263 0.1617 -1.0522
H -3.8166 2.8197 2.2149
H -1.2330 -4.7903 0.5705
O=C(O)CCCCC(CCCC(=O)O)C(=O)O