32
Carboxy
C 4.3597 0.6900 1.3414
C 3.7832 1.2897 0.0591
C 2.6807 0.4182 -0.5616
C 1.3864 0.4260 0.2655
C 0.2744 -0.3536 -0.4471
C -1.0224 -0.3415 0.3774
C -2.1306 -1.2339 -0.2331
C -2.6200 -0.7701 -1.6248
C -3.1351 0.6393 -1.6363
O -4.3448 0.8729 -1.3721
O -2.2703 1.6919 -1.9196
C -3.2924 -1.3721 0.7170
O -3.7382 -0.3691 1.3380
O -3.9060 -2.6108 0.8767
H 5.2269 1.2979 1.6750
H 4.7058 -0.3503 1.1631
H 3.6031 0.6948 2.1529
H 3.3935 2.3099 0.2671
H 4.6082 1.3898 -0.6792
H 3.0478 -0.6249 -0.6811
H 2.4609 0.8162 -1.5766
H 1.5745 -0.0400 1.2563
H 1.0543 1.4758 0.4233
H 0.6051 -1.4040 -0.6030
H 0.0911 0.1126 -1.4384
H -1.3833 0.7043 0.4874
H -0.7914 -0.7213 1.3979
H -1.7005 -2.2521 -0.3626
H -1.7970 -0.8609 -2.3643
H -3.4251 -1.4525 -1.9765
H -2.6003 2.6496 -1.9201
H -4.6981 -2.7219 1.4982
CCCCCCC(CC(=O)O)C(=O)O