35
Carboxy
C -3.9185 -1.2211 -1.3443
C -3.3110 -0.4851 -0.1449
C -1.8643 -0.0438 -0.4511
C -1.1450 0.4912 0.8002
C 0.2489 1.0700 0.4885
C 1.2836 0.0258 0.0072
C 2.6289 0.7153 -0.3078
C 3.6300 -0.2387 -0.9745
C 4.8979 0.4825 -1.3062
O 5.0353 1.0347 -2.4305
O 5.9081 0.5808 -0.3546
C 1.4670 -1.0658 1.0302
O 1.9062 -0.7959 2.1810
O 1.1430 -2.3788 0.7032
C -4.1786 0.6869 0.2293
O -4.3558 1.6357 -0.5822
O -4.7880 0.7229 1.4796
H -4.9581 -1.5380 -1.1127
H -3.3247 -2.1311 -1.5758
H -3.9334 -0.5665 -2.2424
H -3.2898 -1.1993 0.7084
H -1.8662 0.7327 -1.2479
H -1.3053 -0.9243 -0.8333
H -1.7503 1.3084 1.2482
H -1.0666 -0.3134 1.5626
H 0.1378 1.8633 -0.2833
H 0.6327 1.5651 1.4080
H 0.9136 -0.4261 -0.9380
H 2.4444 1.5676 -0.9995
H 3.0712 1.1282 0.6266
H 3.1903 -0.6590 -1.9054
H 3.8683 -1.0826 -0.2924
H 6.7660 1.0797 -0.5575
H 1.2563 -3.1252 1.3784
H -5.3737 1.5040 1.7497
CC(CCCC(CCC(=O)O)C(=O)O)C(=O)O