29
Cyano
C 2.8236 1.2115 -0.9016
C 2.9879 0.1842 0.2183
C 1.6418 -0.2684 0.8165
C 0.7410 -1.0577 -0.1647
C 1.4441 -2.2580 -0.6527
N 1.9957 -3.2003 -1.0364
C -0.5903 -1.5034 0.4877
C -1.4923 -0.3635 1.0309
C -2.7146 -0.9622 1.6042
N -3.6724 -1.4315 2.0535
C -1.8414 0.7237 -0.0261
C -2.6669 1.8685 0.5764
C -2.5511 0.1555 -1.1874
N -3.1071 -0.2909 -2.0989
H 3.8204 1.6096 -1.1860
H 2.3718 0.7434 -1.8004
H 2.1881 2.0579 -0.5646
H 3.5654 -0.6873 -0.1570
H 3.5883 0.6496 1.0298
H 1.1119 0.6399 1.1711
H 1.8485 -0.8988 1.7095
H 0.5131 -0.4352 -1.0525
H -0.3575 -2.1959 1.3290
H -1.1697 -2.0916 -0.2603
H -0.9647 0.1265 1.8759
H -0.9013 1.1831 -0.3952
H -2.8089 2.6736 -0.1766
H -3.6675 1.5137 0.9047
H -2.1358 2.3040 1.4495
CCCC(C#N)CC(C#N)C(C)C#N