28
Cyano
C 2.9667 1.4980 -0.0205
C 2.7800 0.2734 -0.9155
C 2.2468 -0.9559 -0.1566
C 0.8751 -0.7609 0.5388
C 0.5391 -1.9935 1.2792
N 0.2755 -2.9594 1.8597
C -0.2721 -0.3589 -0.4340
C -0.4762 -1.3828 -1.4793
N -0.6358 -2.1846 -2.2983
C -1.5927 -0.0887 0.3238
C -2.6456 0.5927 -0.5648
C -3.9235 0.8811 0.2177
H 3.5036 2.2891 -0.5850
H 1.9839 1.9073 0.2930
H 3.5649 1.2358 0.8779
H 2.1184 0.5270 -1.7697
H 3.7692 0.0071 -1.3471
H 2.1852 -1.8050 -0.8724
H 3.0021 -1.2403 0.6102
H 0.9861 0.0404 1.2999
H 0.0140 0.5880 -0.9371
H -1.3827 0.5770 1.1901
H -2.0068 -1.0426 0.7203
H -2.8973 -0.0620 -1.4268
H -2.2421 1.5514 -0.9573
H -3.7094 1.5603 1.0702
H -4.6649 1.3706 -0.4483
H -4.3617 -0.0644 0.6027
CCCC(C#N)C(C#N)CCC