27
Cyano
C -4.0373 0.7724 0.4248
C -2.7062 0.4136 -0.2297
C -1.7441 -0.2196 0.7867
C -0.4384 -0.7119 0.1411
C 0.5195 0.4411 -0.2084
C 1.8004 -0.0416 -0.9257
C 2.5973 1.1222 -1.3513
N 3.2233 2.0364 -1.6856
C 2.6750 -1.0143 -0.0992
C 3.1058 -0.4682 1.2654
H -4.5291 -0.1393 0.8260
H -3.8776 1.4973 1.2512
H -4.7094 1.2349 -0.3285
H -2.2645 1.3401 -0.6521
H -2.8975 -0.2982 -1.0620
H -1.5149 0.5068 1.5972
H -2.2466 -1.0955 1.2533
H -0.6675 -1.3088 -0.7688
H 0.0574 -1.3855 0.8713
H -0.0046 1.1468 -0.8877
H 0.7795 1.0067 0.7125
H 1.4938 -0.5739 -1.8526
H 2.1355 -1.9735 0.0494
H 3.5892 -1.2612 -0.6833
H 3.6051 0.5174 1.1571
H 2.2326 -0.3699 1.9428
H 3.8234 -1.1744 1.7335
CCCCCC(C#N)CC