29
Cyano
C -3.8715 1.4314 0.0298
C -3.1716 0.0792 0.1922
C -3.8807 -0.9347 -0.6074
N -4.4375 -1.7317 -1.2352
C -1.6915 0.1773 -0.2304
C -0.8937 -1.0861 0.1486
C 0.5653 -1.0485 -0.3594
C 1.1239 -2.4123 -0.3065
N 1.5623 -3.4826 -0.2653
C 1.4445 -0.0857 0.4710
C 2.8553 0.0740 -0.1202
C 3.6785 1.0790 0.6900
C 5.0226 1.2193 0.1186
N 6.0828 1.3301 -0.3319
H -4.9351 1.3544 0.3437
H -3.3803 2.1958 0.6691
H -3.8323 1.7706 -1.0282
H -3.2297 -0.2140 1.2631
H -1.2418 1.0549 0.2787
H -1.6259 0.3501 -1.3280
H -1.4054 -1.9669 -0.3001
H -0.9068 -1.2195 1.2533
H 0.5683 -0.7255 -1.4235
H 0.9747 0.9189 0.4985
H 1.5186 -0.4535 1.5190
H 3.3769 -0.9083 -0.1165
H 2.7745 0.4276 -1.1722
H 3.1830 2.0733 0.6811
H 3.7728 0.7336 1.7416
CC(C#N)CCC(C#N)CCCC#N