28
Cyano
C 4.3120 1.1352 -0.0885
C 2.8044 1.2796 -0.2744
C 2.0640 0.0273 0.2092
C 0.5463 0.1771 0.0197
C -0.2261 -1.0624 0.5205
C 0.0082 -2.2226 -0.3589
N 0.1925 -3.1331 -1.0491
C -1.7389 -0.7899 0.6747
C -2.4406 -0.3754 -0.6356
C -3.9586 -0.2456 -0.4606
C -4.3065 0.8962 0.3956
N -4.5802 1.7956 1.0703
H 4.5562 0.9892 0.9853
H 4.8205 2.0552 -0.4464
H 4.6916 0.2697 -0.6724
H 2.4552 2.1666 0.2982
H 2.5898 1.4493 -1.3521
H 2.2863 -0.1366 1.2867
H 2.4258 -0.8541 -0.3642
H 0.3284 0.3525 -1.0571
H 0.2069 1.0708 0.5888
H 0.1564 -1.3301 1.5299
H -2.2256 -1.7066 1.0762
H -1.8788 0.0106 1.4337
H -2.2508 -1.1430 -1.4161
H -2.0328 0.5914 -1.0026
H -4.3786 -1.1761 -0.0226
H -4.4268 -0.0909 -1.4556
CCCCC(C#N)CCCC#N