28
Cyano
C -3.4459 -0.2086 1.7945
C -2.1061 0.1843 1.1783
C -2.1621 0.1241 -0.3548
C -0.8819 0.6661 -1.0298
C -1.1079 0.7190 -2.4852
N -1.2853 0.7609 -3.6281
C 0.3746 -0.1943 -0.7233
C 1.2620 0.4419 0.3630
C 2.3497 -0.5161 0.8841
C 3.4153 -0.8873 -0.1580
C 4.1790 0.2880 -0.5967
N 4.7804 1.2141 -0.9427
H -3.7217 -1.2412 1.4918
H -4.2422 0.4945 1.4694
H -3.3710 -0.1710 2.9018
H -1.3320 -0.5170 1.5559
H -1.8497 1.2150 1.5066
H -2.3428 -0.9264 -0.6759
H -3.0291 0.7339 -0.6964
H -0.7196 1.7158 -0.6987
H 0.0747 -1.2211 -0.4183
H 0.9970 -0.3043 -1.6389
H 1.7281 1.3693 -0.0344
H 0.6383 0.7429 1.2297
H 2.8509 -0.0434 1.7576
H 1.8685 -1.4478 1.2534
H 4.1239 -1.6108 0.2975
H 2.9548 -1.3806 -1.0382
CCCC(C#N)CCCCC#N