29
Cyano
C -3.4358 1.1687 0.2199
C -2.4829 -0.0292 0.2009
C -3.2506 -1.2600 -0.0535
N -3.8533 -2.2276 -0.2529
C -1.3865 0.1707 -0.8675
C -0.3386 -0.9609 -0.9259
C 0.4453 -1.1992 0.3812
C 1.1723 0.0422 0.9547
C 1.8378 -0.3364 2.2173
N 2.3591 -0.6329 3.2071
C 2.1732 0.7081 -0.0347
C 3.3227 -0.2162 -0.4642
C 2.7268 1.9453 0.5456
N 3.1608 2.9166 1.0011
H -2.8745 2.0991 0.4520
H -4.2115 1.0308 1.0039
H -3.9379 1.2898 -0.7647
H -2.0201 -0.1040 1.2069
H -1.8654 0.2459 -1.8692
H -0.8708 1.1392 -0.6954
H 0.3746 -0.7450 -1.7491
H -0.8448 -1.9095 -1.2066
H 1.1807 -2.0126 0.1998
H -0.2561 -1.5969 1.1466
H 0.4007 0.7946 1.2257
H 1.6263 1.0177 -0.9491
H 3.9002 -0.5735 0.4149
H 2.9326 -1.0916 -1.0228
H 4.0154 0.3267 -1.1431
CC(C#N)CCCC(C#N)C(C)C#N