28
Cyano
N 4.0941 1.3477 -2.4653
C 4.1471 0.7832 -1.4564
C 4.2139 0.0668 -0.1758
C 3.0215 -0.8812 0.0011
C 1.7009 -0.1225 0.2043
C 0.5332 -1.0995 0.4096
C -0.7866 -0.3862 0.7458
C -1.4036 0.3206 -0.4737
C -2.7275 1.0267 -0.1386
C -3.8872 0.0432 0.0620
C -5.1464 0.7720 0.2515
N -6.1397 1.3466 0.4010
H 5.1537 -0.5244 -0.1556
H 4.2500 0.8020 0.6562
H 3.2141 -1.5168 0.8931
H 2.9420 -1.5526 -0.8828
H 1.7915 0.5380 1.0945
H 1.5055 0.5090 -0.6873
H 0.7802 -1.7775 1.2560
H 0.4015 -1.7294 -0.4976
H -1.4950 -1.1556 1.1181
H -0.6213 0.3450 1.5672
H -1.5639 -0.4093 -1.2972
H -0.6982 1.0944 -0.8425
H -2.9767 1.7053 -0.9848
H -2.6001 1.6556 0.7704
H -3.9892 -0.6147 -0.8272
H -3.7139 -0.5863 0.9586
N#CCCCCCCCCC#N