26
Fluoro
C -3.2966 -0.7115 1.3492
C -2.2908 -0.6167 0.2055
C -1.7343 0.8087 0.0748
C -0.8498 0.9966 -1.1723
F -0.4653 2.3246 -1.2544
C 0.4031 0.0993 -1.2173
C 1.3498 0.3121 -0.0241
C 2.6649 -0.4597 -0.2102
F 2.4021 -1.8169 -0.2973
C 3.6230 -0.2152 0.9556
F 3.9952 1.1167 1.0026
H -2.8146 -0.4322 2.3104
H -4.1598 -0.0380 1.1618
H -3.6714 -1.7537 1.4294
H -1.4643 -1.3301 0.4093
H -2.7930 -0.9144 -0.7405
H -1.1712 1.0828 0.9922
H -2.5868 1.5185 -0.0069
H -1.4632 0.7742 -2.0727
H 0.1020 -0.9681 -1.2762
H 0.9501 0.3317 -2.1573
H 0.8596 -0.0392 0.9090
H 1.5722 1.3966 0.0790
H 3.1599 -0.1340 -1.1511
H 3.1438 -0.4979 1.9172
H 4.5353 -0.8341 0.8212
CCCC(F)CCC(F)CF