26
Fluoro
C -4.0597 -0.3720 0.4730
C -2.9245 0.6432 0.3762
C -1.6223 -0.0231 -0.0836
C -0.4786 1.0008 -0.1588
C 0.8108 0.4436 -0.7912
F 0.5508 -0.0193 -2.0712
C 1.4692 -0.6706 0.0511
F 0.7556 -1.8475 -0.1050
C 2.9267 -0.9368 -0.3682
C 3.9007 0.1150 0.1677
F 5.1952 -0.2476 -0.1565
H -4.9878 0.1388 0.8056
H -4.2462 -0.8379 -0.5180
H -3.8071 -1.1644 1.2095
H -3.2150 1.4378 -0.3453
H -2.7742 1.1111 1.3737
H -1.3578 -0.8218 0.6415
H -1.7812 -0.4832 -1.0833
H -0.2548 1.3830 0.8614
H -0.8104 1.8672 -0.7725
H 1.5118 1.2989 -0.8821
H 1.4441 -0.3967 1.1287
H 3.0055 -0.9910 -1.4759
H 3.2360 -1.9250 0.0373
H 3.8187 0.1874 1.2730
H 3.6945 1.1098 -0.2763
CCCCC(F)C(F)CCF