26
Fluoro
C 3.8498 -0.8084 0.2086
C 2.8921 -0.1535 -0.7870
C 1.4135 -0.3676 -0.4220
C 0.9574 0.5032 0.7639
F 1.0255 1.8441 0.4232
C -0.4609 0.1488 1.2518
C -1.5691 0.3957 0.2091
F -1.5438 1.7208 -0.1956
C -2.9548 0.0677 0.7907
C -4.0620 0.3078 -0.2346
F -2.9973 -1.2584 1.1888
H 3.8020 -0.3046 1.1955
H 3.6079 -1.8856 0.3306
H 4.8899 -0.7226 -0.1707
H 3.0743 -0.6046 -1.7867
H 3.1187 0.9318 -0.8650
H 0.8081 -0.1054 -1.3156
H 1.2363 -1.4426 -0.1985
H 1.6420 0.3376 1.6216
H -0.6764 0.7585 2.1568
H -0.4739 -0.9190 1.5622
H -1.3987 -0.2524 -0.6766
H -3.1472 0.7097 1.6779
H -5.0446 0.0412 0.2088
H -3.8974 -0.3195 -1.1366
H -4.0914 1.3773 -0.5329
CCCC(F)CC(F)C(C)F