26
Fluoro
C 3.6403 0.8405 0.4116
C 3.1874 -0.4742 -0.2251
F 4.0479 -0.7820 -1.2649
C 1.7533 -0.3997 -0.7749
C 0.6957 -0.3141 0.3363
C -0.7222 -0.3768 -0.2486
C -1.7908 -0.2461 0.8522
F -1.6256 -1.2656 1.7757
C -3.2286 -0.3154 0.3043
C -3.5971 0.8918 -0.5597
F -3.4129 -1.4806 -0.4212
H 3.0618 1.0511 1.3347
H 4.7129 0.7675 0.6897
H 3.5168 1.6824 -0.3025
H 3.2585 -1.2880 0.5290
H 1.6569 0.4738 -1.4568
H 1.5669 -1.3176 -1.3749
H 0.8404 -1.1572 1.0467
H 0.8128 0.6418 0.8902
H -0.8558 -1.3424 -0.7837
H -0.8365 0.4506 -0.9806
H -1.6536 0.7212 1.3840
H -3.9259 -0.3379 1.1700
H -3.3811 1.8380 -0.0193
H -3.0396 0.8778 -1.5189
H -4.6823 0.8610 -0.7934
CC(F)CCCC(F)C(C)F