26
Fluoro
C 3.4911 -1.1159 0.3008
C 2.8048 0.2140 -0.0011
F 2.9140 1.0399 1.1053
C 1.3254 0.0020 -0.3509
C 0.6432 1.3273 -0.7239
C -0.8122 1.1284 -1.1773
C -1.7629 0.7364 -0.0222
C -2.4146 -0.6380 -0.2466
F -1.4427 -1.6225 -0.3052
C -3.4045 -0.9759 0.8684
F -2.7497 -1.0779 2.0833
H 4.5584 -0.9372 0.5503
H 3.0026 -1.6164 1.1641
H 3.4428 -1.7849 -0.5848
H 3.3257 0.6946 -0.8579
H 1.2503 -0.7003 -1.2103
H 0.8101 -0.4542 0.5214
H 0.6732 2.0304 0.1372
H 1.2044 1.7968 -1.5615
H -0.8429 0.3865 -2.0058
H -1.1652 2.0898 -1.6110
H -1.2324 0.7413 0.9550
H -2.5670 1.5020 0.0495
H -2.9657 -0.6274 -1.2123
H -3.8965 -1.9460 0.6449
H -4.1896 -0.1930 0.9383
CC(F)CCCCC(F)CF