26
Fluoro
C -4.1283 1.0118 0.6752
C -3.0894 0.1080 0.0159
F -3.4515 -1.2142 0.2127
C -1.6920 0.3598 0.5993
C -0.6272 -0.4886 -0.1108
C 0.7770 -0.2109 0.4465
F 0.8159 -0.5580 1.7873
C 1.8368 -1.0118 -0.3330
C 3.2779 -0.7976 0.1665
C 3.7681 0.6384 -0.0231
F 3.3902 -1.1574 1.4987
H -4.1721 0.8178 1.7683
H -3.8754 2.0798 0.5033
H -5.1291 0.8113 0.2377
H -3.0806 0.3166 -1.0762
H -1.6990 0.1170 1.6847
H -1.4358 1.4362 0.4825
H -0.6426 -0.2530 -1.1980
H -0.8655 -1.5675 0.0172
H 0.9867 0.8754 0.3494
H 1.6004 -2.0955 -0.2526
H 1.7865 -0.7409 -1.4107
H 3.9440 -1.4656 -0.4216
H 3.6086 0.9687 -1.0715
H 4.8545 0.6906 0.2009
H 3.2418 1.3296 0.6674
CC(F)CCC(F)CC(C)F