26
Fluoro
F -5.0236 1.1549 0.0404
C -3.7671 0.7211 -0.3407
C -3.1114 -0.0276 0.8203
C -1.7750 -0.6777 0.4295
C -0.6597 0.3541 0.2039
C 0.6834 -0.3374 -0.0615
C 1.7994 0.6962 -0.2843
C 3.1447 0.0637 -0.6854
F 2.9900 -0.6954 -1.8333
C 3.7633 -0.7986 0.4182
F 3.9210 -0.0627 1.5792
H -3.8727 0.0518 -1.2208
H -3.1622 1.6064 -0.6257
H -3.8048 -0.8297 1.1547
H -2.9629 0.6663 1.6762
H -1.4722 -1.3592 1.2547
H -1.9102 -1.2960 -0.4851
H -0.5669 1.0016 1.1036
H -0.9138 0.9928 -0.6688
H 0.5882 -0.9849 -0.9604
H 0.9356 -0.9756 0.8121
H 1.9329 1.3056 0.6361
H 1.4923 1.3885 -1.0988
H 3.8556 0.8865 -0.9164
H 3.1348 -1.6891 0.6255
H 4.7614 -1.1557 0.0872
FCCCCCCC(F)CF