26
Fluoro
C -4.2647 -0.0244 0.4824
C -2.8392 0.3451 0.8824
C -1.8412 -0.0203 -0.2241
C -0.4018 0.3323 0.1787
F -0.2977 1.7011 0.3693
C 0.5907 -0.1170 -0.9077
C 2.0501 0.2584 -0.5932
C 2.6454 -0.5428 0.5770
C 4.1080 -0.1679 0.8037
F 2.5645 -1.9000 0.3137
H -4.9636 0.2519 1.2999
H -4.3439 -1.1177 0.3020
H -4.5610 0.5221 -0.4382
H -2.5772 -0.1961 1.8177
H -2.7964 1.4375 1.0839
H -1.9080 -1.1124 -0.4258
H -2.1075 0.5253 -1.1563
H -0.1660 -0.1828 1.1338
H 0.3117 0.3699 -1.8680
H 0.5121 -1.2157 -1.0594
H 2.6574 0.0627 -1.5042
H 2.1190 1.3471 -0.3780
H 2.0866 -0.3255 1.5111
H 4.5151 -0.7506 1.6569
H 4.1964 0.9139 1.0407
H 4.7112 -0.3943 -0.1013
CCCC(F)CCC(C)F