26
Fluoro
C 3.9636 1.0231 0.0381
C 2.7307 0.2073 -0.3437
C 1.5323 0.5401 0.5563
F 1.1920 1.8746 0.4003
C 0.3256 -0.3420 0.2043
C -0.8674 -0.0556 1.1319
C -2.0394 -1.0389 0.9422
F -1.6206 -2.3200 1.2605
C -2.6481 -1.0486 -0.4724
C -3.2283 0.3042 -0.8840
H 4.8125 0.7427 -0.6205
H 4.2503 0.8195 1.0918
H 3.7648 2.1088 -0.0854
H 2.4729 0.4166 -1.4049
H 2.9792 -0.8727 -0.2513
H 1.8155 0.3641 1.6176
H 0.0356 -0.1446 -0.8499
H 0.6160 -1.4114 0.2977
H -1.2210 0.9867 0.9827
H -0.5295 -0.1339 2.1885
H -2.8385 -0.7636 1.6648
H -3.4705 -1.7963 -0.4899
H -1.8965 -1.3773 -1.2206
H -2.4182 1.0462 -1.0416
H -3.7826 0.1926 -1.8396
H -3.9305 0.6786 -0.1091
CCC(F)CCC(F)CC