26
Fluoro
C 3.0834 1.1267 0.6474
C 2.8836 0.0846 -0.4527
C 2.1390 -1.1723 0.0347
F 2.0811 -2.0905 -1.0004
C 0.7162 -0.9120 0.5675
C -0.2252 -0.2980 -0.4808
C -1.6613 -0.2184 0.0510
C -2.5986 0.4112 -0.9874
C -4.0366 0.4799 -0.4764
F -4.1170 1.3129 0.6256
H 2.1149 1.5897 0.9288
H 3.5487 0.6630 1.5430
H 3.7537 1.9306 0.2767
H 2.3545 0.5449 -1.3135
H 3.8859 -0.2274 -0.8184
H 2.7326 -1.6345 0.8536
H 0.2973 -1.8870 0.9006
H 0.7598 -0.2569 1.4636
H -0.2107 -0.9174 -1.4042
H 0.1179 0.7279 -0.7336
H -2.0203 -1.2423 0.2966
H -1.6741 0.3931 0.9801
H -2.2526 1.4390 -1.2333
H -2.5807 -0.1955 -1.9190
H -4.3982 -0.5336 -0.2004
H -4.6933 0.8822 -1.2763
CCC(F)CCCCCF