26
Fluoro
C -3.6103 0.5808 0.0098
C -2.3660 -0.1180 -0.5305
C -1.3581 -0.3992 0.5931
C -0.1599 -1.2429 0.1227
C 0.7099 -0.5866 -0.9683
C 1.2846 0.7971 -0.6046
C 2.1358 0.8277 0.6770
C 3.3861 -0.0472 0.5824
F 4.1812 0.1608 1.6945
H -4.1208 -0.0624 0.7580
H -4.3153 0.7822 -0.8241
H -3.3346 1.5472 0.4834
H -2.6703 -1.0727 -1.0120
H -1.9048 0.5366 -1.2999
H -1.8710 -0.9650 1.4015
H -1.0071 0.5558 1.0381
H -0.5378 -2.2127 -0.2683
H 0.4737 -1.4880 1.0012
H 1.5450 -1.2758 -1.2158
H 0.1148 -0.4882 -1.9008
H 0.4541 1.5272 -0.5024
H 1.9069 1.1515 -1.4551
H 2.4571 1.8776 0.8507
H 1.5302 0.5244 1.5565
H 3.9692 0.2104 -0.3271
H 3.1074 -1.1208 0.5467
CCCCCCCCF