26
Fluoro
C 3.5848 -0.2167 0.7040
C 2.3518 0.5754 0.2785
C 1.3683 -0.3092 -0.5011
C 0.1909 0.4856 -1.0952
C -0.7309 1.1561 -0.0557
F -1.7319 1.8456 -0.7177
C -1.3551 0.1957 0.9805
C -2.1046 -1.0186 0.3995
C -3.3333 -0.6338 -0.4229
H 4.2714 0.4428 1.2756
H 3.2901 -1.0699 1.3516
H 4.1238 -0.6015 -0.1878
H 2.6748 1.4303 -0.3546
H 1.8623 0.9746 1.1919
H 0.9948 -1.1266 0.1509
H 1.9100 -0.7886 -1.3458
H -0.4094 -0.1903 -1.7403
H 0.5967 1.2747 -1.7653
H -0.1441 1.9185 0.4988
H -0.5545 -0.1763 1.6549
H -2.0536 0.7754 1.6226
H -1.4254 -1.6468 -0.2134
H -2.4442 -1.6486 1.2501
H -3.9784 0.0703 0.1443
H -3.9232 -1.5461 -0.6528
H -3.0308 -0.1720 -1.3852
CCCCC(F)CCC