28
Hydroxy
C -2.8490 1.3229 -0.0674
C -3.2148 -0.1418 0.1587
C -2.0941 -1.1273 -0.2280
C -0.8024 -1.0562 0.6261
O -1.1060 -0.6733 1.9455
C 0.2500 -0.1062 0.0156
C 1.6022 -0.2088 0.7427
C 2.6549 0.7751 0.1874
C 3.1327 0.3967 -1.2216
O 3.7533 0.8489 1.0614
H -3.7671 1.9449 -0.0108
H -2.3889 1.4637 -1.0686
H -2.1556 1.6743 0.7238
H -3.5162 -0.2922 1.2177
H -4.1037 -0.3742 -0.4674
H -2.5166 -2.1499 -0.1131
H -1.8576 -1.0160 -1.3088
H -0.3638 -2.0841 0.6169
H -0.5219 -1.2014 2.5501
H -0.1038 0.9427 0.0592
H 0.3949 -0.3776 -1.0513
H 1.4494 0.0266 1.8183
H 1.9874 -1.2501 0.6752
H 2.2033 1.7899 0.1370
H 3.9686 1.0626 -1.5239
H 3.4904 -0.6548 -1.2456
H 2.3156 0.5222 -1.9614
H 4.1588 -0.0568 1.1103
CCCC(O)CCC(C)O