29
Hydroxy
C 3.4785 -0.3767 1.2143
C 2.9367 0.8870 0.5473
C 2.3906 0.6342 -0.8693
C 1.2090 -0.3503 -0.9436
C -0.0363 0.1501 -0.1930
C -1.2459 -0.7834 -0.4083
O -1.7115 -0.6684 -1.7309
C -2.3992 -0.4818 0.5822
O -3.3697 -1.4979 0.5153
C -3.0481 0.9013 0.3647
O -4.0721 1.1112 1.2998
H 3.9997 -0.1024 2.1556
H 2.6504 -1.0698 1.4701
H 4.2017 -0.8904 0.5459
H 3.7678 1.6210 0.4693
H 2.1591 1.3480 1.1915
H 2.0770 1.6071 -1.3068
H 3.2149 0.2450 -1.5061
H 1.5132 -1.3457 -0.5563
H 0.9563 -0.4823 -2.0176
H -0.2850 1.1745 -0.5450
H 0.1919 0.1949 0.8929
H -0.9166 -1.8311 -0.2021
H -1.2803 -1.3892 -2.2601
H -1.9820 -0.4987 1.6131
H -3.7839 -1.4606 -0.3864
H -3.4437 0.9951 -0.6727
H -2.2902 1.6982 0.5089
H -4.8823 0.6611 0.9442
CCCCCC(O)C(O)CO