27
Hydroxy
C -3.6757 -1.2806 -0.9157
C -3.3207 0.2032 -0.8238
C -1.8154 0.4654 -0.9847
C -1.0001 -0.0143 0.2255
C 0.4764 0.3753 0.0824
C 1.2954 -0.1225 1.2827
C 2.7551 0.3565 1.2419
C 3.5755 -0.3329 0.1448
O 4.9282 0.0147 0.2634
H -3.2686 -1.8372 -0.0465
H -3.2779 -1.7184 -1.8559
H -4.7801 -1.3961 -0.9124
H -3.6796 0.6131 0.1453
H -3.8587 0.7401 -1.6349
H -1.6698 1.5615 -1.1042
H -1.4447 -0.0266 -1.9107
H -1.0728 -1.1196 0.3107
H -1.4120 0.4418 1.1525
H 0.8755 -0.0705 -0.8536
H 0.5587 1.4824 0.0124
H 0.8342 0.2656 2.2174
H 1.2645 -1.2333 1.3284
H 3.2224 0.1298 2.2251
H 2.7889 1.4588 1.1004
H 3.4875 -1.4352 0.2507
H 3.2000 -0.0516 -0.8642
H 5.0138 0.9436 -0.0771
CCCCCCCCO