29
Hydroxy
C -3.7433 0.6467 0.5505
C -3.2442 -0.5619 -0.2456
O -4.1116 -1.6397 -0.0066
C -1.8085 -0.9628 0.1519
C -0.7591 0.0724 -0.2827
C 0.6634 -0.4339 0.0007
C 1.7288 0.6180 -0.3676
O 1.6039 0.9308 -1.7330
C 3.1676 0.1061 -0.0943
C 3.4502 -0.1173 1.3992
O 4.1149 1.0004 -0.6240
H -3.1719 1.5593 0.2827
H -4.8118 0.8352 0.3125
H -3.6517 0.4614 1.6421
H -3.2714 -0.2972 -1.3289
H -3.9800 -2.2861 -0.7490
H -1.5690 -1.9335 -0.3361
H -1.7520 -1.1173 1.2521
H -0.9178 1.0212 0.2727
H -0.8720 0.2732 -1.3704
H 0.8464 -1.3657 -0.5788
H 0.7340 -0.6742 1.0825
H 1.5439 1.5294 0.2508
H 1.9153 1.8664 -1.8488
H 3.3026 -0.8666 -0.6160
H 2.8820 -0.9894 1.7831
H 4.5302 -0.3303 1.5475
H 3.1830 0.7854 1.9889
H 3.9979 1.8700 -0.1582
CC(O)CCCC(O)C(C)O