29
Hydroxy
C 3.8735 0.4128 -0.3924
C 2.8722 -0.6585 0.0416
C 1.6635 -0.7599 -0.9134
C 0.4419 0.1084 -0.5289
O 0.8079 1.4518 -0.3303
C -0.3404 -0.4697 0.6783
C -1.5663 0.3774 1.1006
O -2.1694 -0.2093 2.2266
C -2.6342 0.5620 -0.0085
C -3.1906 -0.7687 -0.5264
O -3.7021 1.3243 0.4929
H 4.2743 0.1784 -1.4015
H 4.7214 0.4381 0.3241
H 3.4033 1.4164 -0.4138
H 3.4041 -1.6348 0.0424
H 2.5535 -0.4645 1.0859
H 1.9799 -0.4987 -1.9475
H 1.3366 -1.8222 -0.9566
H -0.2336 0.0762 -1.4091
H 1.2093 1.5280 0.5741
H -0.6631 -1.5079 0.4505
H 0.3376 -0.5403 1.5543
H -1.2037 1.3953 1.3774
H -1.5902 -0.0043 3.0068
H -2.1874 1.1030 -0.8733
H -2.4117 -1.3341 -1.0785
H -3.5740 -1.3893 0.3110
H -4.0267 -0.5740 -1.2314
H -3.3856 2.2641 0.5481
CCCC(O)CC(O)C(C)O