29
Hydroxy
C -3.8818 0.8051 -0.5285
C -2.4269 0.7610 -0.0696
C -2.0095 -0.6682 0.3107
C -0.6100 -0.7364 0.9626
O -0.3977 -2.0350 1.4573
C 0.5297 -0.3651 -0.0242
O 0.4811 -1.1753 -1.1740
C 1.9325 -0.4411 0.6489
O 2.0178 0.4026 1.7722
C 3.1037 -0.1715 -0.3242
C 3.0918 1.2201 -0.9611
H -4.5560 0.4757 0.2907
H -4.1510 1.8445 -0.8120
H -4.0277 0.1467 -1.4113
H -1.7915 1.1367 -0.8988
H -2.3068 1.4363 0.8053
H -2.7493 -1.0681 1.0390
H -2.0445 -1.3214 -0.5884
H -0.5838 -0.0119 1.8108
H -0.9042 -2.1082 2.3083
H 0.3695 0.6840 -0.3456
H 0.6684 -2.1087 -0.8926
H 2.0749 -1.4808 1.0159
H 1.7042 1.3046 1.5038
H 4.0593 -0.2943 0.2305
H 3.0980 -0.9342 -1.1327
H 3.1250 2.0131 -0.1859
H 3.9891 1.3331 -1.6053
H 2.1956 1.3563 -1.6004
CCCC(O)C(O)C(O)CC