27
Hydroxy
C 3.8834 -0.2305 -0.0118
C 3.0533 1.0432 -0.1702
C 1.7124 0.9761 0.5769
C 0.7181 0.0069 -0.0805
C -0.6448 0.0538 0.6260
C -1.6822 -0.8589 -0.0603
O -1.2415 -2.1932 -0.0104
C -3.0552 -0.7824 0.6341
C -3.7778 0.5443 0.3937
H 3.3974 -1.0839 -0.5282
H 4.8842 -0.0770 -0.4675
H 4.0190 -0.4756 1.0630
H 2.8808 1.2440 -1.2499
H 3.6405 1.8935 0.2395
H 1.2715 1.9971 0.5793
H 1.8851 0.6815 1.6354
H 1.1209 -1.0261 -0.0243
H 0.5868 0.2814 -1.1502
H -1.0078 1.1030 0.6119
H -0.5202 -0.2575 1.6868
H -1.8099 -0.5350 -1.1217
H -0.7614 -2.3780 -0.8597
H -3.6994 -1.5965 0.2353
H -2.9430 -0.9508 1.7275
H -3.2603 1.3775 0.9117
H -4.8097 0.4793 0.7986
H -3.8403 0.7638 -0.6933
CCCCCC(O)CC