30
Hydroxy
C -3.8982 -0.7856 0.6005
C -3.5035 0.3771 -0.3096
C -2.0588 0.8531 -0.0799
C -0.9910 -0.1808 -0.4922
O -1.1244 -0.4847 -1.8586
C 0.4186 0.3832 -0.2339
C 1.5273 -0.6619 -0.5117
O 1.4433 -1.7569 0.3695
C 2.9575 -0.0524 -0.5245
O 3.8747 -0.9989 -1.0147
C 3.4454 0.4981 0.8314
O 2.7680 1.6803 1.1556
H -4.9848 -0.9865 0.4914
H -3.3488 -1.7080 0.3203
H -3.6899 -0.5371 1.6629
H -3.6538 0.0882 -1.3717
H -4.1868 1.2285 -0.0999
H -1.9313 1.1155 0.9936
H -1.9048 1.7842 -0.6687
H -1.1102 -1.0962 0.1332
H -1.6803 -1.3047 -1.9231
H 0.4807 0.7182 0.8235
H 0.5774 1.2718 -0.8842
H 1.3570 -1.0562 -1.5374
H 1.3642 -1.4050 1.2935
H 2.9587 0.7942 -1.2461
H 3.9324 -1.7343 -0.3497
H 4.5331 0.7215 0.7523
H 3.3137 -0.2568 1.6367
H 3.1146 1.9633 2.0414
CCCC(O)CC(O)C(O)CO