29
Hydroxy
C -3.0694 -0.5993 -1.0251
C -2.9590 0.2822 0.2256
O -3.6638 1.4779 0.0136
C -1.4957 0.6283 0.5562
C -0.6854 -0.5941 1.0244
C 0.6863 -0.2144 1.6095
C 1.6493 0.4899 0.6328
C 2.1195 -0.4102 -0.5353
O 1.0983 -0.5733 -1.4876
C 3.3782 0.1536 -1.2184
O 4.4910 0.0481 -0.3692
H -4.1384 -0.7528 -1.2843
H -2.5615 -0.1181 -1.8881
H -2.6200 -1.5974 -0.8442
H -3.4035 -0.2611 1.0924
H -4.6289 1.2663 0.1141
H -1.4934 1.3893 1.3676
H -1.0192 1.0849 -0.3371
H -0.5540 -1.3188 0.1967
H -1.2551 -1.1172 1.8232
H 0.5255 0.4516 2.4855
H 1.1745 -1.1357 1.9957
H 1.2006 1.4289 0.2459
H 2.5344 0.7943 1.2315
H 2.3762 -1.4155 -0.1351
H 0.8927 0.3217 -1.8659
H 3.2085 1.2084 -1.5401
H 3.5871 -0.4414 -2.1330
H 4.6254 0.9383 0.0487
CC(O)CCCCC(O)CO