32
Nitro
C -3.7567 1.1418 -0.0613
C -3.2852 -0.2651 0.3255
C -1.9582 -0.6476 -0.3630
C -0.7584 0.1479 0.1753
C 0.5558 -0.3479 -0.4487
C 1.7857 0.3950 0.1211
C 3.1169 -0.1118 -0.4964
C 3.4144 -1.5774 -0.1465
N 4.2310 0.7267 -0.0483
O 4.5403 0.7808 1.1605
O 4.9146 1.5025 -0.9553
N 1.6523 1.8348 -0.1187
O 1.6316 2.6317 0.8418
O 1.5725 2.3227 -1.4030
N -4.3214 -1.2362 -0.0264
O -5.0663 -1.7018 0.8603
O -4.5989 -1.5064 -1.3471
H -4.7600 1.3349 0.3747
H -3.0637 1.9120 0.3354
H -3.8239 1.2439 -1.1655
H -3.1312 -0.2896 1.4283
H -1.7734 -1.7303 -0.1850
H -2.0428 -0.4954 -1.4617
H -0.7044 0.0345 1.2803
H -0.8928 1.2230 -0.0655
H 0.6474 -1.4330 -0.2331
H 0.5153 -0.2161 -1.5524
H 1.8194 0.2115 1.2198
H 3.0447 -0.0397 -1.6050
H 2.7169 -2.2592 -0.6748
H 4.4436 -1.8405 -0.4716
H 3.3348 -1.7456 0.9487
CC(CCCC(C(C)[N+](=O)[O-])[N+](=O)[O-])[N+](=O)[O-]