30
Nitro
C -3.4605 -0.0081 2.6615
C -2.9875 0.4382 1.2810
C -1.7574 -0.3630 0.8301
C -1.2817 0.0639 -0.5778
C -0.2204 -0.8998 -1.1604
C 1.1641 -0.8467 -0.4774
C 2.1488 0.0658 -1.2244
C 3.4970 0.1298 -0.5026
N 4.4154 0.9964 -1.2305
O 5.0936 0.5363 -2.1717
O 4.3758 2.3561 -1.0280
N -0.8050 1.4498 -0.5911
O -0.9189 2.1315 -1.6304
O -0.0860 1.9588 0.4670
H -4.3493 0.5867 2.9603
H -2.6584 0.1497 3.4137
H -3.7418 -1.0826 2.6446
H -2.7417 1.5212 1.3219
H -3.8166 0.2938 0.5545
H -2.0275 -1.4419 0.8100
H -0.9442 -0.2325 1.5749
H -2.1663 -0.0058 -1.2515
H -0.6128 -1.9376 -1.0814
H -0.1151 -0.7023 -2.2501
H 1.0779 -0.5246 0.5804
H 1.5879 -1.8751 -0.4680
H 1.7350 1.0921 -1.3062
H 2.3066 -0.3275 -2.2528
H 3.3556 0.5288 0.5256
H 3.9333 -0.8902 -0.4211
CCCC(CCCC[N+](=O)[O-])[N+](=O)[O-]