30
Nitro
C -4.3006 0.6252 -0.9544
C -3.4261 0.3337 0.2618
C -2.0365 -0.1587 -0.1598
C -1.1542 -0.4306 1.0679
C 0.1775 -1.1225 0.7182
C 1.2585 -0.1594 0.1748
C 2.6428 -0.8437 0.1932
C 3.7818 0.0781 -0.2662
N 3.9527 1.1990 0.6519
O 3.4963 2.3242 0.3631
O 4.5221 0.9947 1.8870
N 0.9316 0.2719 -1.1857
O 0.9370 1.4865 -1.4738
O 0.7518 -0.6560 -2.1862
H -4.4342 -0.2945 -1.5630
H -5.2989 0.9770 -0.6187
H -3.8379 1.4166 -1.5819
H -3.9259 -0.4396 0.8852
H -3.3274 1.2626 0.8649
H -1.5657 0.6186 -0.7954
H -2.1447 -1.0915 -0.7557
H -1.7111 -1.1027 1.7578
H -0.9622 0.5182 1.6150
H 0.0049 -1.9596 0.0069
H 0.5577 -1.5794 1.6586
H 1.2998 0.7259 0.8483
H 2.8712 -1.1984 1.2224
H 2.6215 -1.7374 -0.4683
H 3.5923 0.4491 -1.2970
H 4.7258 -0.5074 -0.2963
CCCCCC(CC[N+](=O)[O-])[N+](=O)[O-]