30
Nitro
C 4.2729 0.2429 0.6886
C 2.9696 0.0377 -0.0786
C 1.8143 0.8062 0.5779
C 0.5316 0.8160 -0.2731
C -0.1923 -0.5547 -0.3256
C -1.6823 -0.4057 -0.7322
C -2.6403 -0.2963 0.4753
C -4.1008 -0.3626 0.0170
N -2.4120 0.9423 1.2192
O -1.8439 0.9086 2.3301
O -2.7333 2.1595 0.6626
N 0.4789 -1.4525 -1.2693
O 0.6561 -1.1062 -2.4561
O 0.6982 -2.7637 -0.9161
H 4.5575 1.3166 0.6874
H 4.1620 -0.1066 1.7373
H 5.0851 -0.3390 0.2041
H 2.7437 -1.0484 -0.0895
H 3.1111 0.3850 -1.1252
H 2.1283 1.8631 0.7261
H 1.5992 0.3799 1.5822
H -0.1417 1.5722 0.1776
H 0.7575 1.1811 -1.2986
H -0.1434 -1.0178 0.6854
H -1.8162 0.4660 -1.4107
H -1.9833 -1.3065 -1.3132
H -2.4693 -1.1679 1.1474
H -4.3244 0.4519 -0.7049
H -4.7766 -0.2613 0.8928
H -4.3065 -1.3396 -0.4702
CCCCC(CC(C)[N+](=O)[O-])[N+](=O)[O-]