30
Nitro
C 3.9234 1.6487 -0.2566
C 3.1687 0.5419 0.4743
C 1.7780 0.3243 -0.1336
C 1.0162 -0.7790 0.6180
C -0.3198 -1.1666 -0.0616
C -1.3736 -0.0217 -0.0608
C -2.6678 -0.4397 -0.7931
C -3.6209 0.7390 -0.9897
N -1.6681 0.4386 1.3008
O -1.1025 1.4569 1.7495
O -2.5279 -0.2637 2.1142
N -0.8591 -2.3855 0.5508
O -0.8905 -2.5220 1.7917
O -1.3984 -3.3686 -0.2461
H 3.3684 2.6082 -0.1827
H 4.0564 1.3830 -1.3270
H 4.9252 1.7818 0.2034
H 3.7589 -0.3981 0.4086
H 3.0694 0.8214 1.5460
H 1.8865 0.0394 -1.2032
H 1.2119 1.2779 -0.0737
H 1.6585 -1.6869 0.6539
H 0.8374 -0.4591 1.6673
H -0.0839 -1.4010 -1.1244
H -0.9483 0.8268 -0.6408
H -2.4098 -0.8469 -1.7951
H -3.1952 -1.2379 -0.2279
H -3.1267 1.5424 -1.5764
H -4.5210 0.3992 -1.5440
H -3.9451 1.1472 -0.0093
CCCCC(C(CC)[N+](=O)[O-])[N+](=O)[O-]