32
Nitro
C 4.2318 -0.3596 -0.8507
C 2.9026 -0.4020 -1.6049
C 1.7014 -0.6604 -0.6812
C 1.3038 0.5852 0.1308
C 0.2208 0.3007 1.2020
C -1.1132 -0.2971 0.6615
C -1.8596 0.6274 -0.3345
C -2.9761 -0.0969 -1.1038
N -4.1093 -0.4078 -0.2396
O -4.8654 0.5024 0.1575
O -4.3554 -1.7078 0.1359
N -1.9797 -0.6527 1.7898
O -1.9219 -1.8016 2.2743
O -2.6930 0.3169 2.4576
N -0.0240 1.5082 1.9968
O -0.2725 2.6004 1.4448
O -0.0255 1.4339 3.3704
H 5.0659 -0.2830 -1.5796
H 4.3703 -1.2864 -0.2543
H 4.2802 0.5221 -0.1797
H 2.7598 0.5474 -2.1656
H 2.9561 -1.2257 -2.3497
H 1.9238 -1.5109 -0.0002
H 0.8475 -0.9544 -1.3276
H 2.1980 0.9687 0.6655
H 0.9788 1.3909 -0.5598
H 0.6569 -0.4656 1.8827
H -0.8649 -1.2370 0.1224
H -1.1486 1.0037 -1.0967
H -2.2808 1.5135 0.1861
H -3.3260 0.5567 -1.9323
H -2.5818 -1.0292 -1.5638
CCCCC(C(CC[N+](=O)[O-])[N+](=O)[O-])[N+](=O)[O-]