30
Nitro
C -3.6273 -1.5703 -0.9649
C -2.1751 -1.0994 -0.8903
C -2.0282 0.1975 -0.0641
C -0.5569 0.6523 0.0448
C 0.2945 -0.2792 0.9272
C 1.6640 0.3272 1.2832
C 2.5946 0.5169 0.0667
C 3.9332 1.1201 0.5004
N 2.8252 -0.7573 -0.6151
O 2.4316 -0.9201 -1.7884
O 3.4345 -1.8008 0.0436
N -2.8235 1.2738 -0.6595
O -2.6110 1.6480 -1.8319
O -3.7494 1.9447 0.1049
H -4.0353 -1.7269 0.0564
H -3.6772 -2.5322 -1.5175
H -4.2537 -0.8264 -1.5008
H -1.7893 -0.9427 -1.9212
H -1.5828 -1.9139 -0.4236
H -2.4117 0.0030 0.9629
H -0.1164 0.7148 -0.9735
H -0.5394 1.6733 0.4865
H -0.2463 -0.4732 1.8790
H 0.4439 -1.2568 0.4233
H 2.1590 -0.3431 2.0200
H 1.5070 1.3066 1.7866
H 2.1270 1.2383 -0.6391
H 4.4448 0.4590 1.2324
H 4.5922 1.2515 -0.3842
H 3.7718 2.1154 0.9670
CCC(CCCC(C)[N+](=O)[O-])[N+](=O)[O-]