30
Nitro
C 2.7988 -1.2419 -0.9523
C 2.5246 -0.1914 0.1316
C 1.9135 1.1058 -0.4431
C 0.5652 0.9284 -1.1666
C -0.5494 0.4123 -0.2440
C -1.9113 0.4483 -0.9583
C -3.0897 -0.0628 -0.1009
C -2.9960 -1.5646 0.2036
N -3.2284 0.7207 1.1295
O -3.8166 1.8210 1.0962
O -2.5661 0.3517 2.2786
N 3.7691 0.1310 0.8305
O 3.7703 0.2544 2.0726
O 4.8875 0.5019 0.1192
H 3.3696 -2.0906 -0.5188
H 1.8462 -1.6478 -1.3519
H 3.3880 -0.8042 -1.7863
H 1.8181 -0.6367 0.8656
H 1.7782 1.8358 0.3851
H 2.6337 1.5593 -1.1590
H 0.2684 1.9230 -1.5662
H 0.6813 0.2513 -2.0391
H -0.3194 -0.6312 0.0508
H -0.5886 1.0470 0.6669
H -2.1310 1.4957 -1.2613
H -1.8535 -0.1577 -1.8894
H -4.0138 0.0770 -0.7062
H -2.8989 -2.1418 -0.7404
H -2.1296 -1.7960 0.8567
H -3.9203 -1.8979 0.7216
CC(CCCCC(C)[N+](=O)[O-])[N+](=O)[O-]