30
Nitro
C -3.0033 -1.0680 0.6185
C -3.0645 0.3827 0.1239
C -1.6747 0.9359 -0.2578
C -0.7133 1.0768 0.9448
C 0.3259 -0.0557 1.0288
C 1.4793 0.1388 0.0327
C 2.5058 -0.9960 0.1543
C 3.6366 -0.8640 -0.8723
N 4.4547 0.3134 -0.6022
O 4.2787 1.3641 -1.2524
O 5.3407 0.3072 0.4496
N -3.9642 0.4796 -1.0263
O -3.7878 -0.2399 -2.0318
O -4.8933 1.4923 -1.0801
H -4.0322 -1.4553 0.7771
H -2.4671 -1.1252 1.5886
H -2.4886 -1.7159 -0.1229
H -3.4823 1.0046 0.9471
H -1.8228 1.9481 -0.6949
H -1.2307 0.3089 -1.0605
H -0.1823 2.0520 0.8788
H -1.2887 1.1078 1.8956
H 0.7458 -0.0667 2.0585
H -0.1605 -1.0389 0.8550
H 1.9775 1.1105 0.2403
H 1.0837 0.1618 -1.0050
H 2.9367 -1.0077 1.1795
H 1.9948 -1.9694 -0.0134
H 4.2796 -1.7687 -0.8184
H 3.2165 -0.8130 -1.9012
CC(CCCCCC[N+](=O)[O-])[N+](=O)[O-]