14
qm7 509 -1326.7
C          2.29350       -0.39770       -0.26770
N          3.38570        0.18320        0.10080
N          3.68580        1.24940       -0.67540
C          5.14590        1.40880       -0.60960
C          6.01780        0.64620       -1.56980
C          5.85010        2.12930       -1.72670
H          1.93620       -1.28150        0.28300
H          1.68100       -0.06410       -1.12440
H          3.24960        2.09430       -0.29460
H          5.54370        1.56460        0.39180
H          5.53250       -0.00430       -2.28770
H          6.96240        0.27060       -1.19620
H          6.68880        2.76420       -1.46910
H          5.26310        2.48270       -2.56610
