18
qm7 7050 -1769.89
C          0.83420       -0.11800        0.13300
C          2.31910        0.00180        0.25990
C          3.09130        1.07940        0.00370
C          2.52160        2.42130       -0.38890
C          4.55930        1.04290        0.15520
C          5.36850        0.10280       -0.70610
N          5.37540        1.53610       -0.95330
H          0.59010       -1.02050       -0.43680
H          0.37180        0.72440       -0.38520
H          0.38170       -0.21000        1.12490
H          2.81390       -0.91550        0.57760
H          1.47930        2.54660       -0.08340
H          2.58560        2.55830       -1.47310
H          3.08110        3.23060        0.09400
H          4.92460        1.26370        1.15330
H          4.86200       -0.50010       -1.44970
H          6.27180       -0.32770       -0.29350
H          6.23050        1.96650       -0.59980
