15
qm7 2329 -1590.27
C          1.05320        0.06580       -0.02950
C          2.53490       -0.02930       -0.07530
C          3.28310       -1.12800        0.02960
C          4.65490       -0.73430       -0.06540
C          5.71880       -1.53560        0.03690
C          4.63170        0.74980       -0.28550
O          3.24200        1.16070       -0.24730
H          0.58680       -0.92430        0.01810
H          0.67580        0.57370       -0.92160
H          0.73660        0.63340        0.85200
H          2.92580       -2.13610        0.17060
H          6.72640       -1.14050       -0.04140
H          5.61190       -2.60290        0.20520
H          5.03810        1.01850       -1.26630
H          5.17060        1.28850        0.50110
