19
qm7 3403 -1837.9
C          1.97570        0.98280       -0.64690
O          3.19560        1.66370       -0.38730
C          4.30660        1.01150       -1.01100
C          5.59920        1.80530       -0.73520
C          6.81530        0.96170       -1.12940
C          5.53630        3.16920       -1.40070
C          6.36710        3.67780       -2.31940
H          1.16460        1.53180       -0.16090
H          2.00820       -0.03050       -0.23510
H          1.77710        0.94680       -1.72260
H          4.12820        0.92890       -2.09050
H          4.39260        0.00150       -0.59270
H          5.65900        1.99560        0.34510
H          6.80470        0.71260       -2.19600
H          6.82850        0.02080       -0.56840
H          7.75030        1.48680       -0.90690
H          4.70650        3.79500       -1.06760
H          7.22010        3.13160       -2.70720
H          6.20460        4.67850       -2.71040
