9
qm7 120 -977.67
S         -0.51750       -1.27010       -0.00280
C         -1.30290        0.25100       -0.01910
C         -0.40600        1.29620       -0.03600
C          0.94500        0.84140       -0.03550
C          1.02710       -0.53370       -0.01820
H         -2.38300        0.30370       -0.01550
H         -0.70480        2.33740       -0.04810
H          1.81300        1.48970       -0.04710
H          1.91920       -1.14460       -0.01400
