19
qm7 6520 -1785.04
C          0.97250       -0.01970        0.05500
C          2.48910       -0.04460        0.03160
C          3.20350        1.03700        0.89110
C          4.22450       -0.03630        1.33510
N          5.37640       -0.00810        0.42210
C          3.17210       -1.10980        0.93470
N          3.74340       -2.17130        0.10100
H          0.56540       -0.89170       -0.46810
H          0.59460        0.87850       -0.44470
H          0.58230       -0.02680        1.07870
H          2.84680       -0.03010       -1.00800
H          2.59590        1.41170        1.72510
H          3.58910        1.90150        0.34180
H          4.49890       -0.01770        2.39320
H          5.14850        0.16890       -0.55260
H          5.88070       -0.89570        0.44030
H          2.56720       -1.46610        1.77620
H          4.25810       -1.83180       -0.70800
H          3.04100       -2.81240       -0.26640
