20
qm7 1635 -1910.33
C          1.04860       -0.03280        0.05710
N          2.50240       -0.06320        0.04760
C          3.07730        0.97270        0.93270
C          4.15430       -0.05230        1.33880
C          3.12250       -1.12920        0.88890
C          2.29640       -1.69690        2.04400
C          3.70880       -2.23160        0.01200
H          0.64920       -0.93740       -0.41300
H          0.69930        0.81740       -0.53880
H          0.60250        0.06470        1.05210
H          2.44330        1.29890        1.76680
H          3.45310        1.85950        0.41340
H          5.06330        0.00100        0.72720
H          4.43950       -0.04900        2.39440
H          1.89580       -0.91600        2.69950
H          2.91740       -2.34770        2.67010
H          1.45880       -2.30020        1.67760
H          4.30770       -1.82520       -0.81120
H          2.91630       -2.84870       -0.42580
H          4.36010       -2.88850        0.59880
