19
qm7 6871 -1804.67
C          0.97720        0.00110        0.02200
C          2.50330        0.01370       -0.01100
N          2.92670        0.13320       -1.41900
C          3.09420        1.13940        0.83650
C          4.47600        0.62210        1.18940
N          4.28250       -0.80680        1.42990
C          3.12100       -1.24630        0.63630
H          0.60300       -0.09320        1.04790
H          0.57390       -0.84060       -0.55320
H          0.56150        0.92600       -0.39500
H          3.94360        0.10500       -1.47800
H          2.64120        1.03940       -1.78740
H          2.50650        1.28510        1.75300
H          3.13460        2.10190        0.31480
H          5.17320        0.77510        0.35760
H          4.88520        1.12050        2.07270
H          5.11370       -1.33140        1.16170
H          3.42140       -1.99060       -0.11120
H          2.41140       -1.73770        1.31230
