17
qm7 2905 -1704.09
C          0.27160       -0.32140       -0.07160
C          1.72290       -0.02450       -0.26370
C          2.33090        1.17320       -0.23190
C          1.62190        2.49200       -0.09290
O          3.70460        1.20220       -0.47390
C          4.50810        2.10650        0.17200
C          5.78920        2.27390       -0.16330
H          0.15690       -1.12010        0.66800
H         -0.16580       -0.66480       -1.01360
H         -0.30210        0.53660        0.28590
H          2.34790       -0.90020       -0.43540
H          0.56340        2.42790       -0.35990
H          2.06250        3.23790       -0.76290
H          1.69110        2.85960        0.93540
H          4.04250        2.64860        0.98260
H          6.23050        1.70070       -0.97160
H          6.41570        2.98320        0.36400
