18
qm7 1244 -1761.19
C          2.01960       -1.00990       -0.09260
C          2.25510        0.21450       -0.58120
C          3.01340        1.28710        0.15470
C          4.25100        1.74680       -0.62790
N          4.93040        2.82260        0.10750
C          6.16330        2.40070        0.76730
C          6.19980        3.21220       -0.50040
H          1.45650       -1.73870       -0.66750
H          2.37370       -1.31090        0.88850
H          1.86790        0.47400       -1.56460
H          3.31310        0.93110        1.14870
H          2.33630        2.13640        0.31110
H          3.93430        2.13670       -1.60370
H          4.90280        0.88540       -0.82880
H          6.45490        1.35830        0.72470
H          6.39460        2.90350        1.69880
H          6.45120        4.26310       -0.42540
H          6.50360        2.72800       -1.41990
