9
qm7 203 -945.61
C          0.98860        0.01860       -0.08370
C          2.18590       -0.04240       -0.02070
C          3.61170       -0.11500        0.05780
C          4.38190       -0.80170       -1.03770
O          4.27470        0.62550       -0.97730
H         -0.07330        0.07920       -0.14420
H          4.05480       -0.08520        1.04610
H          3.83870       -1.31150       -1.82350
H          5.33940       -1.24170       -0.79150
