15
qm7 6306 -1454.8
O          2.16250        1.54260       -0.26750
C          3.24400        1.18410        0.18190
N          4.41820        1.90500        0.11420
N          4.43960        3.12180       -0.58580
C          4.54340        4.19610        0.41040
C          5.88710        4.79910        0.71230
C          4.86910        5.58600       -0.06170
H          3.38590        0.22070        0.69760
H          5.29550        1.50530        0.43080
H          3.54220        3.20410       -1.08470
H          3.82580        4.14100        1.22810
H          6.75280        4.43280        0.17350
H          6.09030        5.09860        1.73330
H          4.37580        6.41310        0.43510
H          5.04590        5.74420       -1.11920
