15
qm7 5249 -1433.09
C          7.13230       -0.15140        1.13280
N          6.16860        0.91790        0.89210
N          5.18930        0.62080       -0.00030
C          4.38590        1.60410       -0.24100
O          3.30980        1.55720       -1.08200
C          3.09580        0.36040       -1.76750
C          1.88330        0.00570       -2.19530
H          7.89690        0.19050        1.83630
H          7.63290       -0.43860        0.20320
H          6.64060       -1.03210        1.55760
H          5.78020        1.21190        1.79260
H          4.45550        2.60990        0.20750
H          3.98940       -0.22580       -1.94230
H          1.01770        0.63130       -2.00680
H          1.73700       -0.92150       -2.73840
