18
qm7 970 -1751.69
C          0.91790       -0.05860        0.05200
C          2.43690       -0.12050       -0.12770
C          2.77650       -0.93090       -1.38160
C          3.01490        1.30660       -0.18000
C          4.51610        1.33860       -0.25290
C          5.20520        1.91080       -1.24780
H          0.65580        0.48560        0.96520
H          0.49390       -1.06510        0.13040
H          0.43830        0.44600       -0.79340
H          2.85800       -0.64350        0.74110
H          2.42290       -0.42690       -2.28740
H          2.30930       -1.92070       -1.34130
H          3.85600       -1.08440       -1.47610
H          2.71550        1.84970        0.72530
H          2.57760        1.85110       -1.02690
H          5.05950        0.87140        0.56610
H          4.70710        2.39310       -2.08340
H          6.29090        1.90700       -1.24640
