14
qm7 734 -1403.46
C          0.62230        1.01250        1.81220
C          1.02980        0.27170        0.77310
C          2.44230        0.18960        0.27520
O          2.76050       -1.19430        0.12130
C          3.98890       -1.51230       -0.37950
C          5.00050       -0.70670       -0.72540
H         -0.42000        1.01260        2.11590
H          1.31070        1.63020        2.38140
H          0.30070       -0.33030        0.23630
H          3.13610        0.65940        0.98270
H          2.50070        0.69620       -0.69600
H          4.06290       -2.59140       -0.47400
H          4.95900        0.37130       -0.63560
H          5.91940       -1.13390       -1.11290
