12
qm7 5855 -1314.1
N          1.16790       -0.07320       -0.61200
C          2.38390       -0.05740        0.00680
O          2.85150       -1.08210        0.48810
C          3.11850        1.25060        0.00000
C          2.45120        2.41460        0.06810
C          4.52450        1.25060        0.00000
C          5.71460        1.25060        0.00000
H          0.82660        0.69140       -1.17400
H          0.70810       -0.97110       -0.68540
H          1.37050        2.46380        0.13580
H          2.98250        3.36200        0.09490
H          6.77980        1.23760        0.00500
