14
qm7 140 -1339
C         -0.79850       -1.00110       -0.12430
C         -1.18760        0.42180        0.22840
C          0.02190        1.21580       -0.21560
N          1.13910        0.36720        0.19130
C          0.71950       -1.02230       -0.00200
H         -1.28460       -1.73250        0.52820
H         -1.09070       -1.21900       -1.15890
H         -1.33320        0.51450        1.31180
H         -2.10780        0.73840       -0.27060
H          0.02090        1.35160       -1.30350
H          0.06880        2.19860        0.26110
H          1.97280        0.57570       -0.35530
H          1.17250       -1.45240       -0.90150
H          1.03610       -1.62210        0.85710
