19
qm7 2357 -1850.56
C          0.97460       -0.01420        0.10880
C          2.48680        0.01130        0.02490
C          3.21520        1.06690        0.89310
C          4.31260        0.00140        1.17180
C          4.80730       -0.03630        2.60850
O          5.46110        0.04760        0.29430
C          3.24800       -1.07680        0.82220
H          0.57450       -0.87900       -0.43030
H          0.54960        0.88830       -0.34220
H          0.62710       -0.07070        1.14540
H          2.81120        0.05180       -1.02470
H          2.65850        1.38680        1.78240
H          3.54630        1.95820        0.35210
H          3.97800       -0.07010        3.32300
H          5.40770        0.85140        2.83560
H          5.43250       -0.91890        2.78080
H          5.10490        0.06570       -0.60950
H          3.60580       -1.91990        0.22400
H          2.70290       -1.47130        1.68860
