13
qm7 3719 -1389.53
O          0.99110        0.01440        0.06050
C          2.42000        0.00000        0.00000
C          2.84270       -0.77550       -1.25490
C          4.27930       -1.10600       -1.26100
C          5.44950       -1.37720       -1.27150
C          2.90200        1.36120        0.00000
C          3.29930        2.48310        0.00000
H          0.75220        0.60130        0.79850
H          2.77020       -0.52690        0.89550
H          2.58460       -0.20840       -2.15850
H          2.26280       -1.70560       -1.31480
H          6.48770       -1.61630       -1.28430
H          3.65740        3.48700       -0.00640
