13
qm7 6083 -1375.03
O          0.93020       -0.02810        0.00780
C          2.15720       -0.02170        0.00370
N          2.86160        1.14100        0.00290
C          4.29900        1.24800       -0.03470
C          4.95430       -0.09020       -0.00990
C          4.25000       -1.22470        0.00630
N          2.88790       -1.17350        0.00510
H          2.29620        1.97800       -0.00230
H          4.60910        1.84440        0.82870
H          4.56830        1.79070       -0.94590
H          6.03840       -0.12370       -0.01010
H          4.70820       -2.20680        0.01930
H          2.34330       -2.02700        0.01280
