18
qm7 5276 -1723.02
C          1.85070       -0.20830       -1.50840
O          2.15890        0.22360       -0.19050
C          3.01180        1.36390       -0.16300
C          2.30510        2.63860       -0.60740
C          2.98900        3.71510        0.21040
N          3.12650        3.09220        1.52130
C          3.45890        1.68110        1.27300
H          1.24110       -1.11370       -1.43830
H          2.76560       -0.44790       -2.05910
H          1.27580        0.55220       -2.04460
H          3.90060        1.18110       -0.78020
H          1.23130        2.59190       -0.38120
H          2.40990        2.81110       -1.68350
H          3.97350        3.95540       -0.20640
H          2.39570        4.63210        0.26000
H          3.84790        3.54560        2.07800
H          4.54260        1.53810        1.36060
H          2.97250        1.04120        2.01660
