18
qm7 4526 -1717.64
C          2.11470       -0.72080        0.56760
C          2.11210       -1.13660       -0.90170
C          2.62240       -2.58830       -1.03410
N          2.73620       -2.99790       -2.43960
O          0.76370       -1.10970       -1.40070
C          0.25220        0.05330       -1.89600
C          0.81990        1.25900       -2.00140
H          1.75100        0.30470        0.68780
H          3.12110       -0.77930        0.99390
H          1.44710       -1.36040        1.15600
H          2.77300       -0.48820       -1.48910
H          1.92600       -3.27270       -0.53530
H          3.60440       -2.69280       -0.56080
H          1.84840       -2.78480       -2.90070
H          2.84660       -4.00950       -2.48700
H         -0.76600       -0.12300       -2.22890
H          1.83050        1.47380       -1.67950
H          0.25850        2.08420       -2.43020
