16
qm7 5456 -1498.75
C          1.81120       -0.61220        0.38520
O          3.15540       -0.27570        0.05800
N          3.29570        1.11900        0.13270
C          4.54630        1.41390       -0.03120
C          5.00740        2.86010       -0.02460
C          5.32410        3.30390       -1.44090
O          4.02710        3.72360        0.52800
H          1.68890       -1.69230        0.27210
H          1.11510       -0.10490       -0.28980
H          1.59870       -0.33910        1.42290
H          5.31610        0.64220       -0.21060
H          5.90670        2.92240        0.59530
H          4.42600        3.27890       -2.07010
H          6.08080        2.66110       -1.90260
H          5.68760        4.33710       -1.44780
H          3.16510        3.29330        0.35920
