12
qm7 6616 -1234.45
C          3.02420       -1.23640        0.55260
O          2.36890       -0.00740        0.26800
C          3.11840        1.10090        0.16920
C          2.64930        2.37570       -0.10110
N          3.58740        3.38910       -0.16180
C          4.77470        2.87720        0.06430
S          4.83060        1.19150        0.35530
H          2.26110       -2.02030        0.59510
H          3.52170       -1.20410        1.52770
H          3.72990       -1.50280       -0.24150
H          1.60580        2.61520       -0.26430
H          5.67230        3.48180        0.06780
