17
qm7 3327 -1656.58
C          1.95890       -0.13310       -1.59920
O          2.20700        0.36090       -0.29200
C          3.06930        1.48940       -0.28910
C          2.31600        2.76180       -0.65680
C          2.98430        3.80130        0.20400
C          3.26300        3.01160        1.46050
O          3.60660        1.69220        1.02810
H          1.29760       -1.00040       -1.51850
H          2.89210       -0.45270       -2.07310
H          1.46320        0.62260       -2.21560
H          3.92600        1.32280       -0.95320
H          1.25350        2.67470       -0.39690
H          2.37270        2.98780       -1.72600
H          3.92610        4.11670       -0.26000
H          2.36950        4.68730        0.38080
H          4.08150        3.43260        2.05070
H          2.37240        2.94120        2.09490
