18
qm7 4316 -1774.75
C         -0.89500       -0.01420       -1.11460
C         -0.59460        1.06230       -0.03620
C         -1.16320       -0.00820        0.92740
N         -0.66730       -1.04080       -0.04040
C          0.78590       -1.23180        0.18400
C          1.65330        0.01030       -0.07970
C          0.89320        1.30250        0.21380
H         -1.92850       -0.00180       -1.48490
H         -0.23540       -0.06130       -1.98720
H         -1.17770        1.98580       -0.09920
H         -0.74290       -0.04400        1.93820
H         -2.25680        0.00560        1.02160
H          0.94240       -1.57810        1.21360
H          1.13310       -2.04750       -0.46110
H          1.94640        0.01200       -1.13750
H          2.58390       -0.03200        0.49590
H          1.26890        2.10680       -0.42840
H          1.05380        1.61580        1.25200
