20
qm7 1261 -1909.21
C          0.81960        0.20190       -1.15740
C          2.25760        0.60280       -1.17480
C          2.83710        1.36700       -0.23320
C          4.28430        1.77510       -0.25070
N          4.45750        3.23440       -0.23870
C          5.87760        3.55970       -0.07700
C          3.95270        3.84890       -1.47030
H          0.30040        0.64090       -2.01410
H          0.31030        0.52420       -0.24360
H          0.73690       -0.88720       -1.22600
H          2.84580        0.24760       -2.01760
H          2.25210        1.73080        0.60870
H          4.80880        1.32480       -1.10340
H          4.73500        1.35240        0.65510
H          6.25490        3.17470        0.87700
H          6.02730        4.64480       -0.05610
H          6.49190        3.14380       -0.88520
H          2.87080        3.71100       -1.56920
H          4.43890        3.44360       -2.36520
H          4.11680        4.93270       -1.45280
