13
qm7 5558 -1354.71
N          1.00400        0.03830       -0.01200
C          2.33880       -0.01140       -0.00290
C          3.16610        1.08050        0.00240
N          4.45540        0.61170        0.01080
C          4.44920       -0.75860        0.01100
O          5.59600       -1.42160        0.01860
C          3.13500       -1.17470        0.00240
H          0.49140        0.91360        0.00100
H          0.42250       -0.79240        0.00120
H          2.96480        2.14210        0.00060
H          5.29390        1.17480        0.01590
H          5.37540       -2.37020        0.01670
H          2.79090       -2.19870       -0.00020
