14
qm7 4601 -1373.53
C          1.10040       -0.02430        0.05580
C          2.53330        0.01320       -0.45740
C          2.72410       -1.08380       -1.47130
O          2.99060       -0.89640       -2.65380
C          2.82270        1.38140       -1.00970
N          3.51650        2.23140       -0.32320
O          3.59820        3.42920       -1.04190
H          0.93930        0.73990        0.82390
H          0.86320       -1.00090        0.49130
H          0.38350        0.16170       -0.75220
H          3.22330       -0.18500        0.37110
H          2.60980       -2.11100       -1.08280
H          2.38060        1.64460       -1.98820
H          4.14830        3.98770       -0.46160
