17
qm7 4496 -1576.15
C          0.91120        0.09100        0.09160
C          2.42590        0.00560       -0.07390
C          2.84960       -0.72960       -1.35010
N          2.38920       -2.11590       -1.37230
C          2.98080        1.40750       -0.14100
N          3.87880        1.80690        0.70020
O          4.21520        3.13230        0.40400
H          0.65110        0.69640        0.96700
H          0.46930       -0.90070        0.22890
H          0.44030        0.55810       -0.78050
H          2.85450       -0.49690        0.80220
H          3.94260       -0.71730       -1.44070
H          2.45550       -0.21420       -2.23450
H          2.78790       -2.62160       -0.58100
H          2.74460       -2.57740       -2.20950
H          2.59780        2.06890       -0.94020
H          4.86930        3.34200        1.09700
