17
qm7 3189 -1711.81
C          4.19020       -0.96900       -0.47360
C          2.93410       -0.21870       -0.04500
O          2.50970       -0.73350        1.21380
C          3.05840        1.27290        0.10560
C          4.16030        2.01240       -0.08530
C          4.18700        3.44480        0.08650
C          5.29650        4.17160       -0.09170
H          4.53270       -0.64680       -1.46200
H          3.99470       -2.04610       -0.51010
H          5.00450       -0.82850        0.24650
H          2.13700       -0.42920       -0.76640
H          3.17500       -0.46190        1.86940
H          2.12980        1.76510        0.39780
H          5.09440        1.54150       -0.38140
H          3.26570        3.94620        0.37450
H          6.24270        3.72190       -0.37770
H          5.28090        5.24670        0.04820
