10
qm7 4234 -1154.32
C          0.94590        0.07500        0.00010
C          2.14560        0.01720        0.00040
C          3.56700       -0.05260        0.00070
N          4.27040        1.08200        0.00060
O          5.60030        0.68130        0.00090
C          5.65900       -0.67510        0.00120
C          4.38940       -1.19200        0.00110
H         -0.11710        0.13760       -0.00010
H          6.65230       -1.09880        0.00150
H          4.10240       -2.23180        0.00120
