16
qm7 4614 -1561.71
C          0.89910       -0.10610        0.35340
C          2.40990       -0.28230        0.29820
C          3.13800        1.03180        0.01150
O          2.85690        1.99710        1.02840
C          4.65920        0.83500       -0.10620
N          5.36060        2.00730       -0.19300
O          5.22740       -0.24910       -0.14430
H          0.41220       -1.07390        0.51000
H          0.51920        0.31730       -0.58210
H          0.60510        0.55440        1.17520
H          2.65660       -1.02080       -0.47350
H          2.74610       -0.69430        1.25740
H          2.79080        1.44710       -0.94190
H          3.09370        1.58460        1.87870
H          4.90450        2.88350        0.03320
H          6.36920        1.96100       -0.20480
