17
qm7 3111 -1686.22
C          0.98780       -2.14830       -0.73880
C          1.49480       -0.87000       -0.07940
C          2.88350       -0.51370       -0.59580
O          0.62280        0.22640       -0.41430
C         -0.50550        0.34440        0.33810
C         -1.30750        1.52090       -0.12810
O         -0.82730       -0.38610        1.26400
H         -0.00460       -2.41540       -0.36260
H          1.66410       -2.98700       -0.54790
H          0.88730       -2.01590       -1.82150
H          1.54960       -0.99570        1.00910
H          2.86700       -0.33140       -1.67600
H          3.60350       -1.30980       -0.38460
H          3.23830        0.41070       -0.12690
H         -2.25230        1.55570        0.42170
H         -1.53280        1.41910       -1.19280
H         -0.75450        2.44400        0.06210
