23
Alkane
C -1.9719 0.3546 -1.7984
C -1.0665 -0.2001 -0.6910
C -1.9142 -0.9449 0.3509
C -0.2466 0.9505 -0.0592
C 0.7563 0.5198 1.0314
C 1.7967 -0.5225 0.5853
C 2.6779 -0.0323 -0.5629
H -2.7012 1.0823 -1.3817
H -2.5301 -0.4712 -2.2894
H -1.3614 0.8631 -2.5750
H -0.3763 -0.9267 -1.1701
H -2.5580 -1.7017 -0.1462
H -2.5625 -0.2357 0.9090
H -1.2640 -1.4865 1.0685
H 0.3055 1.4917 -0.8576
H -0.9466 1.6877 0.3926
H 1.2930 1.4263 1.3875
H 0.2032 0.1228 1.9087
H 2.4525 -0.7482 1.4539
H 1.3015 -1.4742 0.3004
H 2.0871 0.0603 -1.4978
H 3.1327 0.9495 -0.3118
H 3.4929 -0.7649 -0.7414
CC(C)CCCC