23
Alkane
C -2.5575 0.6809 -0.6861
C -1.5989 0.9472 0.4783
C -0.3555 0.0252 0.5135
C -0.7496 -1.4490 0.7081
C 0.5428 0.2302 -0.7331
C 1.9271 -0.4390 -0.6436
C 2.8212 0.1711 0.4357
H -3.4247 1.3701 -0.6090
H -2.0604 0.8665 -1.6601
H -2.9426 -0.3591 -0.6544
H -2.1618 0.8351 1.4308
H -1.2657 2.0068 0.4268
H 0.2161 0.3341 1.4142
H -1.1566 -1.8811 -0.2303
H 0.1321 -2.0460 1.0202
H -1.5133 -1.5440 1.5092
H 0.0287 -0.1790 -1.6292
H 0.6894 1.3185 -0.9100
H 2.4347 -0.3078 -1.6239
H 1.8276 -1.5315 -0.4755
H 2.8538 1.2769 0.3375
H 2.4596 -0.1028 1.4481
H 3.8533 -0.2232 0.3247
CCC(C)CCC