17
Alkane
C -0.7153 1.4290 -0.4989
C -0.6771 0.1799 0.3920
C -1.2752 -1.0309 -0.3371
C 0.7376 -0.1055 0.9480
C 1.7920 -0.4156 -0.1184
H -1.7688 1.6940 -0.7316
H -0.1816 1.2551 -1.4568
H -0.2501 2.2909 0.0251
H -1.3288 0.3860 1.2702
H -2.3462 -0.8427 -0.5647
H -0.7460 -1.2249 -1.2936
H -1.2122 -1.9365 0.3032
H 0.6837 -0.9647 1.6517
H 1.0792 0.7733 1.5373
H 1.5200 -1.3240 -0.6940
H 1.9218 0.4417 -0.8102
H 2.7670 -0.6049 0.3779
CC(C)CC