41
Benzene
C -0.7602 -0.4018 -0.6860
C -1.4922 0.9101 -0.4641
C -1.8833 1.6913 -1.5674
C -2.5581 2.9007 -1.3761
C -2.8519 3.3426 -0.0844
C -2.4726 2.5754 1.0190
C -1.7976 1.3653 0.8337
C -1.6235 -1.5688 -0.2318
C -2.5165 -2.1569 -1.1477
C -3.3531 -3.2050 -0.7534
C -3.3193 -3.6712 0.5620
C -2.4529 -3.0861 1.4872
C -1.6138 -2.0373 1.0989
C 0.6495 -0.3993 -0.0476
C 1.5948 0.5882 -0.7475
C 2.9559 0.5609 -0.1060
C 3.2385 1.3927 0.9906
C 4.4922 1.3421 1.6079
C 5.4672 0.4556 1.1421
C 5.1886 -0.3850 0.0608
C 3.9361 -0.3377 -0.5594
H -0.5905 -0.5380 -1.7787
H -1.6656 1.3669 -2.5773
H -2.8536 3.4956 -2.2306
H -3.3745 4.2792 0.0615
H -2.7020 2.9184 2.0196
H -1.5152 0.7884 1.7035
H -2.5676 -1.8013 -2.1695
H -4.0317 -3.6529 -1.4678
H -3.9690 -4.4817 0.8660
H -2.4343 -3.4426 2.5090
H -0.9640 -1.5985 1.8424
H 1.0824 -1.4214 -0.1280
H 0.5938 -0.1367 1.0303
H 1.1788 1.6178 -0.6906
H 1.6822 0.3268 -1.8250
H 2.4881 2.0769 1.3672
H 4.7066 1.9876 2.4498
H 6.4366 0.4167 1.6219
H 5.9421 -1.0760 -0.2946
H 3.7295 -1.0011 -1.3902
C(c1ccccc1)(c2ccccc2)CCc3ccccc3