18
Benzene
C -2.1148 0.4838 -1.2753
C -0.7079 0.0063 -1.6193
C 0.1396 -0.0925 -0.3794
C 0.8715 1.0198 0.0696
C 1.6340 0.9355 1.2389
C 1.6638 -0.2542 1.9717
C 0.9279 -1.3607 1.5387
C 0.1640 -1.2808 0.3700
H -2.0760 1.4889 -0.8032
H -2.6046 -0.2299 -0.5788
H -2.7223 0.5496 -2.2023
H -0.7693 -0.9844 -2.1203
H -0.2469 0.7142 -2.3421
H 0.8500 1.9501 -0.4844
H 2.1993 1.7937 1.5786
H 2.2535 -0.3174 2.8771
H 0.9467 -2.2795 2.1105
H -0.4086 -2.1426 0.0500
CCc1ccccc1