28
Benzene
C -1.9111 1.3664 -0.1888
C -3.0806 1.3897 0.5768
C -3.5766 0.2097 1.1342
C -2.9014 -0.9953 0.9311
C -1.7312 -1.0249 0.1665
C -1.2279 0.1565 -0.4155
C 0.0603 0.1645 -1.2196
C 0.0930 -0.9248 -2.3042
C 1.2671 0.1156 -0.2993
C 1.9666 1.3026 -0.0095
C 3.0601 1.2887 0.8614
C 3.4624 0.0942 1.4618
C 2.7689 -1.0881 1.1962
C 1.6744 -1.0804 0.3262
H -1.5378 2.2951 -0.6024
H -3.6004 2.3247 0.7411
H -4.4814 0.2299 1.7278
H -3.2830 -1.9082 1.3701
H -1.2255 -1.9707 0.0355
H 0.1025 1.1196 -1.7913
H -0.7741 -0.8004 -2.9876
H 1.0231 -0.8293 -2.9043
H 0.0570 -1.9478 -1.8798
H 1.6647 2.2421 -0.4555
H 3.5935 2.2062 1.0738
H 4.3084 0.0857 2.1368
H 3.0773 -2.0121 1.6682
H 1.1517 -2.0091 0.1482
c1ccccc1C(C)c2ccccc2