28
Benzene
C -2.5680 -1.2284 0.1646
C -3.9527 -1.1502 -0.0141
C -4.6220 0.0550 0.2162
C -3.9070 1.1853 0.6217
C -2.5221 1.1116 0.8016
C -1.8443 -0.1000 0.5856
C -0.3494 -0.1726 0.7445
C 0.3495 0.1726 -0.5737
C 1.8443 0.1000 -0.4147
C 2.5221 -1.1116 -0.6307
C 3.9070 -1.1853 -0.4508
C 4.6220 -0.0549 -0.0454
C 3.9527 1.1502 0.1849
C 2.5680 1.2284 0.0062
H -2.0599 -2.1656 -0.0262
H -4.5065 -2.0232 -0.3345
H -5.6936 0.1141 0.0762
H -4.4254 2.1198 0.7933
H -1.9783 1.9971 1.1069
H -0.0211 0.5334 1.5392
H -0.0550 -1.1953 1.0686
H 0.0550 1.1953 -0.8978
H 0.0211 -0.5335 -1.3684
H 1.9783 -1.9971 -0.9361
H 4.4254 -2.1198 -0.6224
H 5.6936 -0.1141 0.0947
H 4.5065 2.0232 0.5053
H 2.0599 2.1656 0.1970
c1ccccc1CCc2ccccc2