31
Benzene
C -1.8726 1.4064 1.9930
C -2.0317 0.5934 0.7342
C -3.2794 -0.0026 0.4739
C -3.4813 -0.7596 -0.6795
C -2.4436 -0.9325 -1.5912
C -1.1979 -0.3527 -1.3519
C -0.9636 0.4111 -0.1890
C 0.4173 1.0228 0.0267
C 0.6910 2.1334 -0.9998
C 1.4874 -0.0588 0.0680
C 1.7110 -0.7451 1.2766
C 2.6577 -1.7709 1.3488
C 3.3852 -2.1335 0.2139
C 3.1632 -1.4746 -0.9967
C 2.2175 -0.4477 -1.0753
H -2.8210 1.4664 2.5683
H -1.1082 0.9396 2.6490
H -1.5693 2.4434 1.7374
H -4.1039 0.1192 1.1656
H -4.4467 -1.2115 -0.8679
H -2.6043 -1.5175 -2.4876
H -0.4129 -0.5025 -2.0808
H 0.4683 1.5368 1.0076
H -0.0222 2.9706 -0.8418
H 1.7217 2.5281 -0.8720
H 0.5669 1.7728 -2.0420
H 1.1483 -0.4864 2.1652
H 2.8241 -2.2879 2.2850
H 4.1166 -2.9292 0.2711
H 3.7217 -1.7630 -1.8779
H 2.0609 0.0319 -2.0310
Cc1ccccc1C(C)c2ccccc2