35
Benzene
C 0.0261 0.1475 0.7687
C -1.3297 -0.4963 0.5120
C -2.0018 -0.3619 -0.7212
C -3.2298 -0.9961 -0.9317
C -3.7967 -1.7792 0.0755
C -3.1339 -1.9352 1.2943
C -1.9057 -1.3036 1.5108
C 0.1777 1.4962 0.0783
C -0.3431 2.6470 0.6993
C -0.2492 3.8953 0.0771
C 0.3543 4.0095 -1.1767
C 0.8597 2.8746 -1.8137
C 0.7688 1.6235 -1.1965
C 1.1885 -0.7939 0.4835
C 1.1486 -1.7381 -0.5641
C 2.2490 -2.5624 -0.8173
C 3.4037 -2.4494 -0.0406
C 3.4632 -1.5071 0.9879
C 2.3662 -0.6800 1.2458
H 0.0633 0.3575 1.8627
H -1.5786 0.2227 -1.5261
H -3.7397 -0.8845 -1.8799
H -4.7466 -2.2706 -0.0908
H -3.5699 -2.5496 2.0714
H -1.4015 -1.4460 2.4587
H -0.8249 2.5772 1.6668
H -0.6487 4.7743 0.5663
H 0.4243 4.9766 -1.6576
H 1.3179 2.9630 -2.7903
H 1.1522 0.7601 -1.7220
H 0.2754 -1.8356 -1.1939
H 2.2080 -3.2862 -1.6210
H 4.2547 -3.0876 -0.2399
H 4.3620 -1.4142 1.5838
H 2.4359 0.0525 2.0405
C(c1ccccc1)(c2ccccc2)c3ccccc3