31
Benzene
C -2.8679 1.6391 0.9394
C -2.7383 1.5971 -0.4505
C -1.9737 0.5942 -1.0538
C -1.3317 -0.3828 -0.2678
C -1.4660 -0.3263 1.1315
C -2.2317 0.6790 1.7294
C -0.4676 -1.4587 -0.9035
C -1.2865 -2.3114 -1.8811
C 0.7698 -0.8575 -1.6025
C 1.6518 -0.1177 -0.6277
C 2.5392 -0.8255 0.2001
C 3.3253 -0.1448 1.1348
C 3.2261 1.2440 1.2549
C 2.3392 1.9545 0.4414
C 1.5522 1.2780 -0.4954
H -3.4589 2.4175 1.4045
H -3.2275 2.3447 -1.0614
H -1.8763 0.5874 -2.1315
H -0.9731 -1.0556 1.7621
H -2.3292 0.7154 2.8067
H -0.1024 -2.1538 -0.1137
H -0.6749 -3.1645 -2.2452
H -2.1835 -2.7225 -1.3702
H -1.6135 -1.7148 -2.7587
H 1.3619 -1.6747 -2.0706
H 0.4571 -0.1812 -2.4281
H 2.6174 -1.9030 0.1240
H 4.0086 -0.6946 1.7692
H 3.8336 1.7692 1.9805
H 2.2588 3.0294 0.5394
H 0.8616 1.8401 -1.1117
c1ccc(cc1)C(C)Cc2ccccc2