38
Benzene
C -3.7037 -3.1710 0.1872
C -2.6767 -3.2815 -0.7519
C -1.5671 -2.4336 -0.6835
C -1.4668 -1.4680 0.3404
C -2.5199 -1.3571 1.2683
C -3.6266 -2.2077 1.1946
C -0.3002 -0.4955 0.4289
C -0.5985 0.7653 -0.3628
C -0.6553 2.0095 0.2921
C -0.9080 3.1793 -0.4303
C -1.1054 3.1213 -1.8116
C -1.0498 1.8930 -2.4737
C -0.7971 0.7201 -1.7565
C 1.0560 -1.1199 0.0243
C 2.2075 -0.2221 0.4039
C 2.7304 0.6949 -0.5241
C 3.7676 1.5566 -0.1549
C 4.2858 1.5137 1.1423
C 3.7651 0.6111 2.0737
C 2.7268 -0.2516 1.7090
H -4.5622 -3.8276 0.1306
H -2.7422 -4.0228 -1.5379
H -0.7966 -2.5371 -1.4339
H -2.4854 -0.6079 2.0497
H -4.4275 -2.1164 1.9169
H -0.1957 -0.2268 1.5054
H -0.4993 2.0771 1.3615
H -0.9488 4.1322 0.0815
H -1.2999 4.0284 -2.3691
H -1.2000 1.8497 -3.5447
H -0.7502 -0.2186 -2.2913
H 1.1775 -2.0998 0.5367
H 1.0926 -1.3211 -1.0676
H 2.3312 0.7465 -1.5295
H 4.1671 2.2604 -0.8735
H 5.0878 2.1824 1.4268
H 4.1631 0.5830 3.0798
H 2.3243 -0.9386 2.4432
c1ccc(cc1)C(c2ccccc2)C(c3ccccc3)