28
Benzene
C 3.3287 0.7532 -0.7024
C 3.3498 0.3517 0.6362
C 2.3584 -0.5034 1.1273
C 1.3413 -0.9690 0.2775
C 1.3226 -0.5547 -1.0653
C 2.3150 0.3016 -1.5518
C 0.2459 -1.8526 0.8182
C -0.8353 -1.0398 1.5437
C -1.5614 -0.1108 0.6042
C -2.5834 -0.6011 -0.2255
C -3.2270 0.2509 -1.1283
C -2.8504 1.5941 -1.2144
C -1.8283 2.0873 -0.3989
C -1.1832 1.2393 0.5064
H 4.0953 1.4172 -1.0802
H 4.1322 0.7067 1.2945
H 2.3794 -0.7986 2.1691
H 0.5354 -0.8865 -1.7311
H 2.2957 0.6185 -2.5865
H 0.6845 -2.5831 1.5323
H -0.2163 -2.4457 -0.0015
H -1.5659 -1.7426 2.0001
H -0.3773 -0.4677 2.3806
H -2.8767 -1.6424 -0.1757
H -4.0149 -0.1312 -1.7645
H -3.3478 2.2516 -1.9156
H -1.5327 3.1260 -0.4711
H -0.3837 1.6313 1.1229
c1ccc(cc1)CC(c2ccccc2)