25
Benzene
C 3.5317 0.5182 0.4517
C 3.0240 0.8757 -0.8004
C 1.8546 0.2772 -1.2796
C 1.1892 -0.6920 -0.5100
C 1.6991 -1.0371 0.7531
C 2.8688 -0.4360 1.2284
C -0.0896 -1.3094 -1.0070
C -1.2699 -0.4873 -0.5658
C -1.8862 -0.7386 0.6717
C -2.9607 0.0493 1.0960
C -3.4211 1.0970 0.2938
C -2.8055 1.3609 -0.9328
C -1.7307 0.5756 -1.3611
H 4.4362 0.9835 0.8217
H 3.5349 1.6192 -1.3984
H 1.4672 0.5695 -2.2478
H 1.1905 -1.7687 1.3686
H 3.2596 -0.7076 2.2005
H -0.0708 -1.3863 -2.1165
H -0.1849 -2.3500 -0.6258
H -1.5337 -1.5418 1.3068
H -3.4344 -0.1504 2.0485
H -4.2521 1.7067 0.6244
H -3.1590 2.1763 -1.5505
H -1.2571 0.7961 -2.3097
c1ccc(cc1)C(c2ccccc2)