31
Benzene
C -1.2520 1.5987 0.1523
C -1.9738 2.0434 1.2640
C -3.0434 1.2883 1.7526
C -3.3912 0.0854 1.1319
C -2.6712 -0.3637 0.0205
C -1.6004 0.3941 -0.4824
C -0.7944 -0.1143 -1.6517
C 0.2450 -1.1655 -1.2092
C 1.2393 -0.5887 -0.2157
C 1.2639 -1.0632 1.1086
C 2.1519 -0.5171 2.0401
C 3.0210 0.5088 1.6622
C 3.0029 0.9922 0.3521
C 2.1170 0.4500 -0.5835
C 0.9684 -1.7628 -2.4230
H -0.4189 2.1888 -0.2090
H -1.7014 2.9718 1.7492
H -3.6003 1.6333 2.6142
H -4.2163 -0.5013 1.5145
H -2.9437 -1.3027 -0.4453
H -1.4879 -0.5709 -2.3919
H -0.2921 0.7320 -2.1696
H -0.3092 -2.0053 -0.7319
H 0.5917 -1.8514 1.4238
H 2.1637 -0.8877 3.0570
H 3.7064 0.9313 2.3855
H 3.6733 1.7908 0.0619
H 2.1108 0.8477 -1.5899
H 1.7261 -2.5037 -2.0893
H 0.2403 -2.2851 -3.0798
H 1.4741 -0.9735 -3.0183
c1ccccc1CC(c2ccccc2)C