25
Benzene
C -1.7206 -1.3088 -0.4070
C -2.8717 -0.9827 -1.1310
C -3.5137 0.2395 -0.9131
C -3.0036 1.1393 0.0268
C -1.8528 0.8173 0.7530
C -1.2087 -0.4147 0.5484
C 0.0509 -0.7470 1.3011
C 1.2545 -0.2582 0.5423
C 1.7386 1.0454 0.7442
C 2.8358 1.5103 0.0124
C 3.4509 0.6820 -0.9304
C 2.9677 -0.6116 -1.1456
C 1.8707 -1.0805 -0.4161
H -1.2280 -2.2554 -0.5917
H -3.2642 -1.6762 -1.8634
H -4.4038 0.4909 -1.4752
H -3.4982 2.0881 0.1904
H -1.4631 1.5271 1.4721
H 0.1211 -1.8454 1.4624
H 0.0241 -0.2863 2.3131
H 1.2658 1.7004 1.4655
H 3.2072 2.5141 0.1740
H 4.2992 1.0439 -1.4968
H 3.4411 -1.2500 -1.8803
H 1.5008 -2.0818 -0.5987
c1ccccc1Cc2ccccc2