15
Cyano
C 0.9644 -0.2143 -0.4538
C 1.3390 1.0771 -1.0562
N 1.6325 2.0915 -1.5300
C 2.0645 -0.6464 0.4282
N 2.9273 -0.9863 1.1206
C -0.4021 -0.1429 0.2968
C -0.7296 -1.4643 0.8671
N -0.9862 -2.5009 1.3137
C -0.3517 0.8309 1.4064
N -0.3118 1.5945 2.2754
C -1.5388 0.2536 -0.6637
H 0.8870 -0.9567 -1.2777
H -2.5203 0.2438 -0.1398
H -1.3811 1.2763 -1.0689
H -1.5932 -0.4558 -1.5182
C(C#N)(C#N)C(C#N)(C#N)C