22
Cyano
C 2.5644 0.6845 1.1182
C 1.9169 -0.6964 0.9717
C 0.7597 -0.7493 -0.0500
C 1.2529 -0.4643 -1.4101
N 1.6393 -0.2407 -2.4778
C -0.4017 0.2005 0.3290
C -1.6951 -0.0663 -0.4731
C -2.2756 -1.3716 -0.1138
N -2.7312 -2.3974 0.1682
C -2.7269 1.0347 -0.2135
H 1.8447 1.4129 1.5461
H 3.4305 0.6119 1.8092
H 2.9306 1.0564 0.1384
H 1.5400 -1.0192 1.9667
H 2.7012 -1.4256 0.6704
H 0.3836 -1.7948 -0.0487
H -0.0811 1.2518 0.1549
H -0.6236 0.1000 1.4154
H -1.4667 -0.0719 -1.5606
H -2.9889 1.0828 0.8659
H -3.6514 0.8417 -0.7997
H -2.3215 2.0202 -0.5275
CCC(C#N)CC(C#N)C