19
Cyano
C 2.5012 -0.4378 0.6135
C 1.1333 0.2520 0.5880
C 1.2447 1.4982 -0.1892
N 1.3331 2.4774 -0.7999
C 0.0560 -0.6821 -0.0146
C -1.3834 -0.3550 0.4470
C -2.2927 -1.4226 -0.0013
N -3.0074 -2.2621 -0.3533
C -1.8904 0.9904 -0.0849
H 3.2701 0.2446 1.0363
H 2.4610 -1.3442 1.2547
H 2.8096 -0.7372 -0.4119
H 0.8637 0.5123 1.6346
H 0.1160 -0.6762 -1.1270
H 0.2770 -1.7253 0.3079
H -1.4163 -0.3342 1.5579
H -2.9696 1.1176 0.1501
H -1.3514 1.8276 0.4036
H -1.7547 1.0567 -1.1861
CC(C#N)CC(C#N)C