13
Cyano
C -1.0101 -1.0580 0.0224
C -0.5406 0.3898 -0.1612
C -0.6413 1.1252 1.1115
N -0.7203 1.7029 2.1112
C 0.8849 0.4720 -0.7407
C 1.8958 -0.1299 0.1441
N 2.6905 -0.6031 0.8397
H -0.3922 -1.5854 0.7807
H -0.9415 -1.6065 -0.9412
H -2.0703 -1.0754 0.3551
H -1.2282 0.8800 -0.8841
H 1.1552 1.5357 -0.9151
H 0.9181 -0.0473 -1.7222
CC(C#N)C(C#N)