13
Cyano
C -1.4194 -0.3334 0.0267
C -1.8486 1.0193 0.4062
N -2.1866 2.0849 0.7053
C -0.0168 -0.3251 -0.5931
C 1.0685 0.0106 0.4373
C 2.3960 -0.0349 -0.1854
N 3.4433 -0.0708 -0.6765
H -2.1420 -0.7332 -0.7158
H -1.4428 -0.9919 0.9211
H 0.1830 -1.3360 -1.0126
H 0.0168 0.4040 -1.4337
H 0.9069 1.0292 0.8493
H 1.0416 -0.7227 1.2712
C(C#N)CC(C#N)