17
Fluoro
C -2.3964 0.1060 0.3264
C -0.9022 -0.0924 0.5649
C -0.1453 -0.2426 -0.7632
C 1.3411 -0.5875 -0.5649
F 1.8882 -0.9293 -1.7899
C 2.1512 0.5677 0.0304
F 2.0612 1.6913 -0.7723
H -2.9163 0.2224 1.3007
H -2.8240 -0.7736 -0.2005
H -2.5720 1.0191 -0.2815
H -0.5187 0.7861 1.1254
H -0.7565 -1.0018 1.1876
H -0.2430 0.6898 -1.3612
H -0.6125 -1.0654 -1.3480
H 1.4292 -1.4712 0.1040
H 3.2179 0.2677 0.1035
H 1.7981 0.8137 1.0528
CCCC(F)C(F)