17
Fluoro
C 2.1965 0.1319 -0.4130
C 1.3375 -0.4798 0.6934
C -0.1161 -0.7167 0.2553
C -0.9023 0.5944 0.0884
C -2.3789 0.3401 -0.2251
F -2.9778 -0.3525 0.8123
F -3.0277 1.5508 -0.3852
F -2.5020 -0.3902 -1.3940
H 3.2550 0.1690 -0.0796
H 1.8696 1.1681 -0.6377
H 2.1388 -0.4836 -1.3358
H 1.7821 -1.4583 0.9774
H 1.3652 0.1745 1.5917
H -0.6090 -1.3381 1.0344
H -0.1310 -1.2940 -0.6950
H -0.4668 1.1913 -0.7408
H -0.8330 1.1929 1.0230
CCCCC(F)(F)F