15
Hydroxy
C -1.8408 0.1345 -0.3334
C -0.8322 -0.7756 0.3670
C 0.6082 -0.5486 -0.1164
C 1.1856 0.7915 0.3550
O 2.5289 0.9001 -0.0302
H -1.6798 1.1942 -0.0466
H -1.7571 0.0318 -1.4362
H -2.8695 -0.1528 -0.0295
H -0.8953 -0.6255 1.4667
H -1.1108 -1.8308 0.1557
H 0.6508 -0.6056 -1.2261
H 1.2415 -1.3689 0.2867
H 1.0935 0.8874 1.4612
H 0.6248 1.6278 -0.1110
H 3.0524 0.3405 0.6013
CCCCO