18
Hydroxy
O -1.7583 1.1930 0.7645
C -1.5084 0.5794 -0.4712
C -0.6677 -0.7039 -0.3037
O -0.4461 -1.2874 -1.5624
C 0.6963 -0.4759 0.3982
O 0.5057 -0.0462 1.7221
C 1.5923 0.5335 -0.3397
O 2.8931 0.5026 0.1837
H -2.4301 0.6296 1.2302
H -0.9859 1.2998 -1.1340
H -2.4738 0.3294 -0.9674
H -1.2494 -1.4182 0.3258
H -1.3017 -1.7067 -1.8425
H 1.2370 -1.4521 0.4075
H 0.1984 -0.8355 2.2403
H 1.1750 1.5631 -0.2618
H 1.6488 0.2699 -1.4169
H 2.8749 1.0256 1.0273
OCC(O)C(O)CO