15
Hydroxy
C 1.3951 -0.0906 0.3704
C -0.0542 0.2724 -0.0031
C -0.4785 -0.4819 -1.2770
C -0.9903 -0.1093 1.1524
O -0.1603 1.6603 -0.2121
H 1.7124 0.4725 1.2743
H 2.0877 0.1666 -0.4597
H 1.4865 -1.1785 0.5787
H 0.1959 -0.2285 -2.1229
H -0.4392 -1.5807 -1.1144
H -1.5149 -0.2016 -1.5632
H -0.7048 0.4371 2.0770
H -2.0398 0.1583 0.9032
H -0.9419 -1.2009 1.3566
H 0.4463 1.9047 -0.9601
CC(C)(C)O