21
Hydroxy
C -3.0682 -0.0702 -0.8162
C -2.0652 -0.7200 0.1327
C -0.6733 -0.0955 -0.0193
C 0.3336 -0.7607 0.9308
C 1.7109 -0.0791 0.9055
C 2.4747 -0.3330 -0.3965
O 3.7664 0.1967 -0.2877
H -4.0650 -0.5409 -0.6827
H -2.7481 -0.2096 -1.8708
H -3.1565 1.0158 -0.5998
H -2.4234 -0.5896 1.1773
H -2.0137 -1.8084 -0.0887
H -0.7328 0.9920 0.2065
H -0.3362 -0.2225 -1.0702
H -0.0589 -0.6993 1.9696
H 0.4414 -1.8378 0.6752
H 2.3123 -0.4815 1.7500
H 1.5970 1.0153 1.0662
H 1.9493 0.1556 -1.2458
H 2.5373 -1.4280 -0.5867
H 4.2184 0.0003 -1.1493
CCCCCCO