12
Hydroxy
C -1.2717 -0.0980 0.6368
C -0.3557 -0.1486 -0.5840
C 1.1209 -0.2425 -0.1862
O 1.5241 0.9015 0.5177
H -2.3304 -0.0576 0.3044
H -1.0582 0.8061 1.2455
H -1.1309 -1.0045 1.2631
H -0.6213 -1.0376 -1.1959
H -0.5184 0.7582 -1.2060
H 1.7454 -0.3707 -1.0993
H 1.2801 -1.1354 0.4554
H 1.6159 1.6290 -0.1517
CCCO