19
Hydroxy
O -2.7630 -0.9094 -0.7061
C -2.5679 -0.1071 0.4258
C -1.1703 -0.3397 1.0019
C -0.0721 0.1234 0.0351
C 1.3197 -0.0950 0.6398
C 2.4182 0.3658 -0.3219
O 3.6817 0.1296 0.2368
H -3.6783 -0.7072 -1.0318
H -2.6931 0.9667 0.1600
H -3.3226 -0.3694 1.2004
H -1.0438 -1.4216 1.2267
H -1.0826 0.2249 1.9559
H -0.2101 1.2045 -0.1880
H -0.1513 -0.4468 -0.9164
H 1.4051 0.4761 1.5903
H 1.4632 -1.1751 0.8631
H 2.3423 -0.2045 -1.2723
H 2.2974 1.4479 -0.5586
H 3.8278 0.8368 0.9182
OCCCCC(O)