19
Nitro
C -0.7462 0.4044 1.3498
C -0.4456 -0.0661 -0.0915
C -1.3890 -1.2337 -0.4340
N -0.6923 1.0289 -1.0458
O -0.2559 0.9488 -2.2137
O -1.6443 1.9846 -0.7699
C 1.0261 -0.5635 -0.1962
C 2.0730 0.5209 0.0789
H -1.8306 0.6108 1.4792
H -0.4545 -0.3742 2.0873
H -0.1971 1.3408 1.5826
H -1.2495 -2.0754 0.2786
H -2.4493 -0.9037 -0.3869
H -1.1906 -1.6068 -1.4618
H 1.2104 -0.9698 -1.2152
H 1.1930 -1.3999 0.5180
H 2.0454 0.8344 1.1428
H 1.9121 1.4051 -0.5722
H 3.0851 0.1146 -0.1298
CC(C)([N+](=O)[O-])CC