18
Nitro
C -1.4681 -0.0803 -0.7127
N -2.7629 -0.4018 -0.1255
O -3.2008 -1.5692 -0.1807
O -3.3990 0.5213 0.6712
C -0.3490 -0.3528 0.3002
C 1.0593 -0.1664 -0.3002
C 1.3659 1.3021 -0.6250
N 2.0615 -0.6898 0.6288
O 2.2722 -0.1214 1.7207
O 2.6466 -1.9100 0.3829
H -1.3131 -0.6945 -1.6269
H -1.4651 0.9897 -1.0093
H -0.4453 -1.4036 0.6527
H -0.4771 0.3120 1.1827
H 1.1241 -0.7454 -1.2486
H 1.2011 1.9461 0.2652
H 0.7252 1.6612 -1.4568
H 2.4244 1.4029 -0.9464
C([N+](=O)[O-])CC(C)[N+](=O)[O-]