18
Nitro
C 0.9135 -1.5207 -0.6779
C 0.6713 -0.3109 0.2347
N 1.8645 0.5382 0.2363
O 2.2106 1.1492 -0.7964
O 2.6858 0.5611 1.3393
C -0.5741 0.5117 -0.1891
N -0.6757 1.7256 0.6234
O -0.8695 2.8298 0.0746
O -0.7136 1.6408 1.9965
C -1.8759 -0.2893 -0.0573
H 0.9621 -1.2067 -1.7424
H 0.1077 -2.2735 -0.5546
H 1.8737 -2.0098 -0.4077
H 0.5090 -0.6938 1.2674
H -0.4604 0.8018 -1.2587
H -1.9037 -1.1183 -0.7943
H -1.9790 -0.7058 0.9675
H -2.7461 0.3704 -0.2615
CC([N+](=O)[O-])C([N+](=O)[O-])C