16
Nitro
C 1.6809 -0.4112 -0.3225
C 0.8020 0.1517 0.7968
C -0.6690 0.3864 0.3916
N -0.7657 1.3303 -0.7249
O -0.7081 2.5569 -0.5016
O -0.7382 0.8865 -2.0277
C -1.4137 -0.9195 0.0813
H 2.7198 -0.5263 0.0522
H 1.3216 -1.4093 -0.6463
H 1.7036 0.2788 -1.1911
H 0.8378 -0.5428 1.6643
H 1.2379 1.1177 1.1326
H -1.1791 0.8379 1.2723
H -1.3431 -1.6150 0.9446
H -2.4871 -0.7018 -0.1035
H -0.9998 -1.4203 -0.8181
CCC([N+](=O)[O-])C