16
Nitro
C 1.4836 -0.1023 -0.0878
C -0.0364 0.0477 0.0882
C -0.5952 0.9759 -1.0104
N -0.3118 0.6136 1.4193
O -0.2247 1.8455 1.6076
O -0.3612 -0.2120 2.5200
C -0.7091 -1.3332 -0.0445
H 1.9833 0.8866 -0.0013
H 1.7241 -0.5331 -1.0839
H 1.9002 -0.7709 0.6961
H -1.6864 1.1298 -0.8666
H -0.0951 1.9678 -0.9829
H -0.4305 0.5371 -2.0184
H -0.2899 -2.0509 0.6931
H -0.5479 -1.7541 -1.0607
H -1.8029 -1.2478 0.1323
CC(C)([N+](=O)[O-])C