35
Carboxy
C 3.2899 2.3753 0.2015
C 2.6556 1.1419 0.8460
C 2.1586 0.1211 -0.2046
C 1.3400 -1.0193 0.4538
C -0.1306 -0.6306 0.7526
C -1.0159 -0.7354 -0.5197
C -2.2640 0.1659 -0.4864
C -3.3364 -0.3227 0.4948
C -4.6020 0.4544 0.3146
O -4.7755 1.5337 0.9415
O -5.5687 0.0064 -0.5802
C -0.6590 -1.5124 1.8544
O -0.8463 -2.7435 1.6551
O -0.9031 -0.9718 3.1133
C 3.3228 -0.4620 -0.9626
O 4.1960 -1.1468 -0.3636
O 3.4366 -0.2404 -2.3316
H 2.5636 2.8738 -0.4751
H 3.5878 3.0951 0.9927
H 4.1962 2.0943 -0.3751
H 3.3958 0.6650 1.5255
H 1.8078 1.4886 1.4727
H 1.5143 0.6582 -0.9334
H 1.8557 -1.3244 1.3930
H 1.3369 -1.9182 -0.2043
H -0.1570 0.4170 1.1198
H -0.4261 -0.4238 -1.4074
H -1.3128 -1.7897 -0.7130
H -2.6982 0.1781 -1.5111
H -1.9710 1.2096 -0.2377
H -2.9864 -0.1926 1.5395
H -3.5468 -1.4007 0.3244
H -6.4238 0.5295 -0.7258
H -1.2476 -1.5510 3.8694
H 4.2137 -0.6228 -2.8569
CCC(CC(CCCC(=O)O)C(=O)O)C(=O)O