38
Carboxy
C -2.8748 1.9152 -1.3392
C -3.5191 0.6649 -0.7402
C -2.5553 -0.5350 -0.6825
C -1.4336 -0.3897 0.3765
C -0.3937 -1.5432 0.2615
C 0.9188 -1.1810 -0.4893
C 0.6194 -0.8202 -1.9233
O 0.3446 0.3679 -2.2451
O 0.6001 -1.8185 -2.8922
C 1.7945 -0.0996 0.2237
C 3.1731 0.0492 -0.4637
C 3.9656 1.1789 0.1228
O 3.7369 2.3644 -0.2381
O 4.9281 0.9207 1.0938
C 1.9834 -0.4249 1.6853
O 2.5921 -1.4732 2.0328
O 1.4725 0.4324 2.6548
C -2.0204 -0.3548 1.7642
O -2.6783 -1.3366 2.2040
O -1.8304 0.7661 2.5666
H -3.6516 2.6949 -1.4858
H -2.4175 1.6844 -2.3247
H -2.1013 2.3268 -0.6590
H -3.9171 0.8981 0.2704
H -4.3845 0.3840 -1.3788
H -2.1143 -0.6849 -1.6905
H -3.1491 -1.4493 -0.4613
H -0.9231 0.5777 0.2128
H -0.1207 -1.9236 1.2701
H -0.8575 -2.4207 -0.2425
H 1.5233 -2.1159 -0.5163
H 0.3828 -1.6011 -3.8574
H 1.2826 0.8846 0.1565
H 3.0436 0.2499 -1.5485
H 3.7528 -0.8951 -0.3713
H 5.4605 1.6748 1.5107
H 1.5821 0.2263 3.6404
H -2.2149 0.8059 3.5029
CCCC(CC(C(=O)O)C(CC(=O)O)C(=O)O)C(=O)O