38
Carboxy
C 4.8642 0.1568 -0.0799
C 3.9691 1.3956 -0.0660
C 2.5749 1.1275 -0.6533
C 1.7155 0.2239 0.2513
C 0.2559 0.1024 -0.2522
C 0.2300 -0.5567 -1.6136
O 0.6256 -1.7441 -1.7637
O -0.1585 0.1817 -2.7274
C -0.6526 -0.6024 0.8129
C -0.3444 -2.0768 0.9630
O 0.5347 -2.4507 1.7856
O -0.9981 -3.0265 0.1840
C -2.1890 -0.3323 0.6777
C -2.5590 1.1132 1.0953
C -4.0421 1.2845 1.2369
O -4.6239 0.9034 2.2878
O -4.7808 1.8326 0.1930
C -2.7508 -0.6709 -0.6844
O -2.7411 0.1806 -1.6140
O -3.3057 -1.9265 -0.9114
H 4.4829 -0.6118 0.6238
H 4.9195 -0.2720 -1.1030
H 5.8892 0.4391 0.2403
H 3.8802 1.7796 0.9735
H 4.4597 2.1861 -0.6744
H 2.0620 2.1063 -0.7764
H 2.6802 0.6733 -1.6624
H 1.7136 0.6586 1.2749
H 2.1711 -0.7873 0.3112
H -0.1226 1.1390 -0.3756
H -0.1581 -0.2328 -3.6517
H -0.3783 -0.1588 1.7968
H -0.7836 -4.0121 0.2761
H -2.6942 -1.0021 1.4112
H -2.0903 1.3586 2.0729
H -2.1801 1.8486 0.3546
H -5.7851 1.9411 0.2684
H -3.6901 -2.1688 -1.8167
CCCCC(C(=O)O)C(C(=O)O)C(CC(=O)O)C(=O)O