35
Carboxy
C 3.6157 1.2124 -0.4500
C 2.3380 1.6243 0.2790
C 1.5148 0.4287 0.7934
C 0.8029 -0.3782 -0.3329
C 1.7625 -1.3430 -0.9867
O 2.4322 -2.1537 -0.2908
O 1.8750 -1.3684 -2.3736
C -0.4770 -1.1504 0.1419
C -0.2962 -1.7873 1.5032
O 0.1485 -2.9636 1.5895
O -0.5811 -1.0768 2.6656
C -1.8156 -0.3439 0.0446
C -2.2920 -0.1941 -1.4234
C -3.7278 0.3258 -1.5196
C -1.7631 0.9960 0.7397
O -1.2391 1.9939 0.1738
O -2.3003 1.1330 2.0159
H 4.2512 2.1081 -0.6139
H 3.3770 0.7801 -1.4427
H 4.1908 0.4770 0.1516
H 1.7169 2.2615 -0.3871
H 2.6285 2.2460 1.1539
H 0.7606 0.8466 1.4886
H 2.1581 -0.2340 1.4130
H 0.4941 0.3396 -1.1210
H 2.5031 -2.0175 -2.8320
H -0.6176 -2.0096 -0.5545
H -0.4467 -1.4961 3.5778
H -2.5934 -0.9515 0.5612
H -1.6254 0.4913 -1.9884
H -2.2605 -1.1832 -1.9299
H -3.8051 1.3476 -1.0924
H -4.4220 -0.3520 -0.9789
H -4.0355 0.3687 -2.5857
H -2.2716 2.0230 2.4987
CCCC(C(=O)O)C(C(=O)O)C(CC)C(=O)O