35
Carboxy
C 4.2530 -0.0487 0.6992
C 3.2279 -0.8720 1.4787
C 2.3569 -1.7649 0.5781
C 1.4676 -1.0207 -0.4420
C 0.2184 -0.3392 0.1767
C -0.8596 -0.0910 -0.9110
C -2.2453 0.3175 -0.3395
C -3.3678 0.1370 -1.3841
C -3.6464 -1.3089 -1.6659
O -4.2586 -2.0110 -0.8172
O -3.2117 -1.8807 -2.8576
C -2.2454 1.7472 0.1339
O -1.9525 2.6830 -0.6591
O -2.5920 2.0390 1.4495
C 0.5915 0.9490 0.8612
O 1.1545 1.8757 0.2176
O 0.2915 1.1263 2.2085
H 4.9555 0.4339 1.4109
H 3.7548 0.7523 0.1161
H 4.8365 -0.6998 0.0141
H 2.6031 -0.2052 2.1037
H 3.7824 -1.5338 2.1789
H 3.0293 -2.4521 0.0188
H 1.7177 -2.4069 1.2222
H 2.0601 -0.2971 -1.0400
H 1.1270 -1.7949 -1.1640
H -0.2159 -1.0324 0.9308
H -0.9889 -1.0374 -1.4777
H -0.5015 0.6661 -1.6438
H -2.4801 -0.3331 0.5328
H -3.0955 0.6543 -2.3302
H -4.3085 0.5987 -1.0098
H -3.3842 -2.8586 -3.0577
H -2.5995 2.9948 1.7849
H 0.5258 1.9899 2.6832
CCCCC(CC(CC(=O)O)C(=O)O)C(=O)O