32
Carboxy
C -4.3144 -0.9748 -0.1292
C -2.8713 -0.6837 0.2975
C -1.8722 -1.3009 -0.7106
C -0.4427 -1.4626 -0.1581
C 0.3381 -0.1411 -0.0916
C 1.8245 -0.3947 0.2064
C 2.6137 0.9086 0.4554
C 2.7329 1.7677 -0.8107
C 3.9877 0.5783 0.9699
O 4.3448 0.9708 2.1130
O 4.8683 -0.1626 0.1860
C -2.6906 0.8041 0.4285
O -2.5941 1.3275 1.5709
O -2.6637 1.6108 -0.7060
H -5.0274 -0.5283 0.5972
H -4.5183 -0.5549 -1.1380
H -4.4939 -2.0709 -0.1546
H -2.7176 -1.1593 1.2921
H -2.2262 -2.3222 -0.9743
H -1.8569 -0.7211 -1.6597
H -0.4742 -1.9347 0.8481
H 0.1005 -2.1598 -0.8338
H 0.2389 0.3892 -1.0624
H -0.0812 0.4960 0.7137
H 2.2813 -0.9586 -0.6372
H 1.8950 -1.0313 1.1170
H 2.0826 1.5063 1.2302
H 3.3881 2.6443 -0.6176
H 1.7390 2.1570 -1.1136
H 3.1628 1.1786 -1.6493
H 5.7960 -0.3918 0.5219
H -2.5493 2.6141 -0.6274
CC(CCCCC(C)C(=O)O)C(=O)O