35
Carboxy
O 3.9226 2.0241 -0.1306
C 4.6300 0.9824 -0.0812
O 5.7379 0.9328 0.7589
C 4.2624 -0.2151 -0.9021
C 3.6142 -1.3184 -0.0508
C 2.2923 -0.9050 0.6218
C 1.1650 -0.6476 -0.3890
C -0.1674 -0.3954 0.3271
C -1.2925 -0.1172 -0.6825
C -2.6594 0.0853 0.0061
C -3.7837 0.1683 -1.0458
C -5.1378 0.2032 -0.4037
O -5.7404 1.3001 -0.2571
O -5.7132 -0.9744 0.0631
C -2.6484 1.3182 0.8748
O -2.4377 2.4541 0.3696
O -2.8728 1.2000 2.2429
H 5.9928 1.7299 1.3296
H 5.1893 -0.6213 -1.3606
H 3.5933 0.0795 -1.7377
H 3.4350 -2.2083 -0.6927
H 4.3319 -1.6290 0.7399
H 1.9849 -1.7318 1.2991
H 2.4487 -0.0030 1.2521
H 1.4125 0.2429 -1.0052
H 1.0607 -1.5285 -1.0601
H -0.0527 0.4755 1.0087
H -0.4326 -1.2878 0.9358
H -1.0382 0.7807 -1.2888
H -1.3626 -0.9846 -1.3757
H -2.8557 -0.8029 0.6485
H -3.6465 1.0665 -1.6879
H -3.7419 -0.7236 -1.7079
H -6.6212 -0.9663 0.5121
H -2.8689 2.0166 2.8422
O=C(O)CCCCCCC(CC(=O)O)C(=O)O