35
Carboxy
C -3.3326 2.0246 -0.2186
C -1.9051 1.4799 -0.1567
C -1.8506 0.0560 0.4494
C -0.4188 -0.3469 0.8844
C 0.6179 -0.5022 -0.2692
C 0.4422 -1.8115 -1.0018
O 0.3118 -2.8934 -0.3670
O 0.4700 -1.8293 -2.3931
C 2.1013 -0.3570 0.1966
C 2.4957 1.0694 0.6599
C 2.3312 2.1313 -0.4288
C 2.4592 -1.3656 1.2612
O 2.1154 -1.1835 2.4607
O 3.1544 -2.5192 0.9111
C -2.4802 -0.9848 -0.4419
O -2.4470 -0.8682 -1.6972
O -3.0644 -2.1108 0.1296
H -3.3193 3.0522 -0.6391
H -3.9672 1.3868 -0.8691
H -3.7755 2.0656 0.7992
H -1.4765 1.4940 -1.1811
H -1.3023 2.1733 0.4695
H -2.4530 0.0802 1.3853
H -0.0734 0.4228 1.6028
H -0.4752 -1.2898 1.4716
H 0.4328 0.2904 -1.0185
H 0.3671 -2.6980 -2.9037
H 2.7461 -0.5803 -0.6842
H 3.5690 1.0564 0.9528
H 1.9247 1.3800 1.5588
H 2.7911 1.7920 -1.3811
H 1.2586 2.3636 -0.5923
H 2.8344 3.0681 -0.1088
H 3.3942 -3.2133 1.6088
H -3.4761 -2.8328 -0.4494
CCC(CC(C(=O)O)C(CC)C(=O)O)C(=O)O