32
Carboxy
C -2.6413 1.0809 -0.3856
C -2.9806 -0.4104 -0.4426
C -2.0652 -1.3442 0.3916
C -0.5481 -1.1634 0.1198
C 0.1645 -0.1567 1.0489
C 1.6108 0.1216 0.6102
C 1.6849 1.0949 -0.5799
C 3.1306 1.4677 -0.9323
C 3.8802 0.3008 -1.4981
O 4.7072 -0.3265 -0.7836
O 3.6401 -0.1082 -2.8061
C -2.4081 -1.3527 1.8621
O -2.3444 -2.4321 2.5099
O -2.7448 -0.1759 2.5240
H -3.3950 1.6470 -0.9724
H -1.6476 1.2754 -0.8397
H -2.6638 1.4638 0.6535
H -4.0358 -0.5490 -0.1197
H -2.9299 -0.7260 -1.5080
H -2.3125 -2.3658 0.0220
H -0.0504 -2.1499 0.2515
H -0.4054 -0.8839 -0.9447
H -0.3923 0.7985 1.1202
H 0.1988 -0.5883 2.0730
H 2.1521 0.5724 1.4709
H 2.1169 -0.8358 0.3589
H 1.1414 2.0291 -0.3183
H 1.1922 0.6579 -1.4742
H 3.6540 1.8619 -0.0338
H 3.1173 2.2782 -1.6922
H 4.1295 -0.9030 -3.1998
H -2.9552 -0.1784 3.5148
CCC(CCCCCC(=O)O)C(=O)O