32
Carboxy
C 2.2635 -0.8719 -1.8250
C 1.7874 -1.5950 -0.5649
C 1.9618 -0.7531 0.7114
C 1.0291 0.4807 0.8060
C -0.4782 0.0955 0.8920
C -1.2433 0.3334 -0.4340
C -2.6713 -0.2543 -0.3892
C -2.6895 -1.7805 -0.4975
C -1.3245 1.8091 -0.7284
O -0.8146 2.2706 -1.7846
O -1.9659 2.6661 0.1619
C 1.4204 1.3039 2.0052
O 1.3768 0.8054 3.1628
O 1.8204 2.6261 1.8363
H 2.2213 -1.5698 -2.6875
H 3.3121 -0.5271 -1.7016
H 1.6154 -0.0023 -2.0556
H 0.7325 -1.9167 -0.6858
H 2.3941 -2.5195 -0.4523
H 1.7841 -1.4133 1.5891
H 3.0221 -0.4199 0.7713
H 1.2108 1.1196 -0.0836
H -0.5667 -0.9662 1.2007
H -0.9905 0.6748 1.6938
H -0.6959 -0.1556 -1.2677
H -3.2597 0.1450 -1.2454
H -3.1877 0.0555 0.5458
H -2.1332 -2.1139 -1.3992
H -2.2473 -2.2514 0.4036
H -3.7398 -2.1302 -0.5846
H -2.0258 3.6598 -0.0254
H 2.0819 3.1954 2.6323
CCCC(CC(CC)C(=O)O)C(=O)O