35
Carboxy
C 4.3028 0.9123 0.9106
C 3.0658 0.0404 1.1056
C 2.7478 -0.7605 -0.1652
C 1.6168 -1.7850 0.0374
C 0.2629 -1.1933 0.4850
C -0.3385 -0.1489 -0.4896
C -0.5507 -0.7330 -1.8663
O -0.2377 -0.0628 -2.8867
O -1.1108 -1.9987 -2.0181
C -1.6385 0.4849 0.0861
C -2.1159 1.6820 -0.7686
C -3.2173 2.4395 -0.0902
O -2.9438 3.2923 0.7963
O -4.5441 2.1736 -0.4136
C -2.7388 -0.5331 0.2811
O -3.4560 -0.9005 -0.6887
O -2.9455 -1.0882 1.5402
H 4.1428 1.6267 0.0750
H 5.1898 0.2812 0.6895
H 4.5010 1.4893 1.8384
H 2.2110 0.7017 1.3616
H 3.2454 -0.6545 1.9546
H 2.4999 -0.0715 -0.9999
H 3.6573 -1.3225 -0.4718
H 1.4763 -2.3479 -0.9103
H 1.9421 -2.5261 0.7999
H 0.3798 -0.7399 1.4924
H -0.4492 -2.0383 0.6056
H 0.3978 0.6790 -0.5772
H -1.2633 -2.3925 -2.9387
H -1.3814 0.8926 1.0903
H -2.4699 1.3353 -1.7635
H -1.2679 2.3797 -0.9432
H -5.2998 2.6663 0.0471
H -3.6702 -1.7797 1.6905
CCCCCC(C(=O)O)C(CC(=O)O)C(=O)O