35
Carboxy
C -4.0638 -1.2737 -0.7852
C -3.1732 -0.0519 -0.5072
C -3.7132 0.7644 0.6416
O -4.1632 0.2022 1.6769
O -3.6811 2.1538 0.5711
C -1.6808 -0.4477 -0.3106
C -0.7660 0.8049 -0.2251
C 0.6988 0.5463 -0.6287
C 1.4872 -0.2551 0.4209
C 2.9882 -0.3326 0.0963
C 3.7346 0.9628 0.4421
C 5.2012 0.7998 0.1961
O 5.9569 0.4010 1.1223
O 5.7229 1.0472 -1.0698
C -1.4987 -1.3626 0.8778
O -1.4717 -0.8998 2.0504
O -1.3873 -2.7350 0.6764
H -5.1023 -0.9446 -1.0043
H -4.0877 -1.9615 0.0866
H -3.6846 -1.8306 -1.6684
H -3.2351 0.5824 -1.4197
H -4.0241 2.7210 1.3371
H -1.3805 -1.0154 -1.2197
H -0.8081 1.2616 0.7879
H -1.1523 1.5752 -0.9282
H 0.7355 0.0222 -1.6085
H 1.1793 1.5370 -0.7685
H 1.3407 0.1819 1.4329
H 1.1012 -1.2951 0.4390
H 3.4266 -1.1632 0.6931
H 3.1311 -0.5802 -0.9789
H 3.5679 1.2235 1.5101
H 3.3648 1.8030 -0.1811
H 6.7110 0.9260 -1.2571
H -1.2737 -3.3673 1.4595
CC(C(=O)O)C(CCCCCC(=O)O)C(=O)O