28
Cyano
C 4.0618 -0.1167 0.8680
C 2.7756 -0.6987 0.2886
C 1.7204 0.3973 0.0690
C 0.3898 -0.1691 -0.4687
C 0.5765 -0.7015 -1.8317
N 0.7227 -1.1197 -2.9009
C -0.6987 0.9290 -0.4621
C -2.0958 0.4528 -0.9336
C -3.0242 1.5965 -0.9541
N -3.7534 2.4949 -0.9702
C -2.6953 -0.7065 -0.1029
C -2.7992 -0.4164 1.3975
H 3.8615 0.3603 1.8511
H 4.4902 0.6379 0.1743
H 4.8052 -0.9287 1.0126
H 2.3803 -1.4645 0.9911
H 3.0149 -1.1964 -0.6757
H 2.1169 1.1629 -0.6353
H 1.5319 0.8990 1.0442
H 0.0755 -1.0001 0.1967
H -0.7831 1.3569 0.5609
H -0.3649 1.7602 -1.1247
H -2.0104 0.1010 -1.9842
H -2.0940 -1.6279 -0.2528
H -3.7137 -0.9363 -0.4875
H -1.7909 -0.3422 1.8547
H -3.3401 -1.2484 1.8956
H -3.3597 0.5243 1.5801
CCCC(C#N)CC(C#N)CC