28
Cyano
C 3.6754 0.3144 1.3979
C 2.8972 0.5248 0.1022
C 1.6523 -0.3685 0.0523
C 0.8637 -0.1399 -1.2454
C -0.2977 -1.1340 -1.4260
C -1.3667 -1.1044 -0.3123
C -2.0504 0.2662 -0.1098
C -2.7168 0.7009 -1.3530
N -3.2388 1.0422 -2.3279
C -3.0718 0.1830 1.0398
C -3.6111 1.5078 1.3808
N -4.0354 2.5505 1.6491
H 4.5703 0.9717 1.4048
H 3.0417 0.5682 2.2743
H 4.0096 -0.7418 1.4800
H 2.5949 1.5927 0.0335
H 3.5623 0.2909 -0.7576
H 1.0080 -0.1314 0.9260
H 1.9619 -1.4350 0.1148
H 0.4870 0.9040 -1.2848
H 1.5511 -0.2674 -2.1103
H -0.7834 -0.9367 -2.4058
H 0.1200 -2.1630 -1.4818
H -2.1421 -1.8624 -0.5625
H -0.9040 -1.4347 0.6422
H -1.2825 1.0203 0.1652
H -3.9126 -0.4908 0.7657
H -2.5821 -0.2274 1.9488
CCCCCCC(C#N)CC#N