29
Cyano
C -3.2379 0.8091 1.3391
C -3.2941 -0.0001 0.0433
C -2.0365 0.1722 -0.8231
C -0.8066 -0.5406 -0.2289
C 0.4473 -0.3922 -1.1204
C 0.2259 -1.0473 -2.4227
N 0.0525 -1.5611 -3.4450
C 1.7104 -1.0099 -0.4721
C 2.1643 -0.3598 0.8604
C 3.3966 -1.0181 1.3305
N 4.3640 -1.5350 1.6997
C 2.3773 1.1675 0.7831
C 3.3306 1.5556 -0.2684
N 4.0799 1.8605 -1.0958
H -2.4657 0.4038 2.0248
H -3.0189 1.8763 1.1228
H -4.2199 0.7484 1.8538
H -3.4518 -1.0747 0.2807
H -4.1731 0.3461 -0.5427
H -2.2592 -0.2535 -1.8250
H -1.8182 1.2542 -0.9590
H -1.0336 -1.6191 -0.0757
H -0.6007 -0.0885 0.7604
H 0.6278 0.6838 -1.3253
H 2.5500 -0.9475 -1.2018
H 1.5241 -2.0930 -0.2901
H 1.3974 -0.5584 1.6372
H 2.7575 1.5409 1.7585
H 1.4103 1.6805 0.6017
CCCCC(C#N)CC(C#N)CC#N