29
Cyano
C -2.4132 1.5814 0.6034
C -2.0782 0.4283 1.5544
C -1.9877 -0.9552 0.8675
C -3.3219 -1.3846 0.4138
N -4.3700 -1.7221 0.0574
C -0.9920 -1.0241 -0.3178
C 0.4672 -0.6681 0.0487
C 0.9876 -1.6083 1.0587
N 1.3959 -2.3455 1.8519
C 1.3513 -0.6936 -1.2184
C 2.8224 -0.2845 -0.9835
C 3.0154 1.1640 -0.5086
C 2.4928 2.1326 -1.4810
N 2.0802 2.8959 -2.2468
H -3.3405 1.3656 0.0325
H -1.5770 1.7650 -0.1026
H -2.5727 2.5088 1.1928
H -1.1240 0.6540 2.0753
H -2.8591 0.3875 2.3458
H -1.6677 -1.6897 1.6375
H -1.3416 -0.3500 -1.1304
H -1.0096 -2.0565 -0.7362
H 0.4866 0.3551 0.4709
H 0.9109 -0.0252 -1.9899
H 1.3437 -1.7209 -1.6462
H 3.3800 -0.4231 -1.9359
H 3.2869 -0.9692 -0.2421
H 2.5324 1.3276 0.4759
H 4.1017 1.3548 -0.3793
CCC(C#N)CC(C#N)CCCC#N