29
Cyano
C 4.0055 -0.8049 0.9959
C 2.5009 -0.5741 0.8499
C 2.1209 -0.0730 -0.5597
C 2.6080 1.3008 -0.7828
N 2.9904 2.3790 -0.9580
C 0.6014 -0.1642 -0.8234
C -0.2590 0.6337 0.1800
C -1.7321 0.7784 -0.2707
C -2.4212 1.7201 0.6345
N -2.9612 2.4582 1.3438
C -2.4904 -0.5776 -0.3570
C -3.9055 -0.4073 -0.9256
C -2.5587 -1.2578 0.9502
N -2.6113 -1.7915 1.9757
H 4.3562 -1.5514 0.2519
H 4.2241 -1.1910 2.0138
H 4.5623 0.1453 0.8535
H 1.9846 -1.5383 1.0511
H 2.1738 0.1561 1.6223
H 2.6186 -0.7257 -1.3104
H 0.3970 0.1947 -1.8567
H 0.3106 -1.2357 -0.7838
H 0.1727 1.6530 0.2899
H -0.2163 0.1466 1.1782
H -1.7335 1.2435 -1.2810
H -1.9509 -1.2483 -1.0572
H -4.3833 -1.4012 -1.0643
H -4.5419 0.1975 -0.2443
H -3.8619 0.0945 -1.9157
CCC(C#N)CCC(C#N)C(C)C#N