30
Cyano
C 3.8355 0.7870 1.2539
C 3.6562 -0.0192 -0.0325
C 2.2789 -0.6946 -0.1263
C 1.1419 0.3127 -0.3838
C -0.2343 -0.3811 -0.5460
C -0.2259 -1.1882 -1.7830
N -0.2190 -1.8214 -2.7518
C -1.4024 0.6522 -0.5723
C -1.4649 1.3919 0.7071
N -1.5114 1.9735 1.7067
C -2.7948 0.0366 -0.9366
C -3.8441 1.0753 -0.9809
N -4.6662 1.8892 -1.0156
C -3.2459 -1.1589 -0.0628
C -3.4766 -0.8037 1.3453
N -3.6604 -0.5274 2.4540
H 3.6152 0.1576 2.1421
H 3.1738 1.6775 1.2571
H 4.8861 1.1396 1.3238
H 4.4366 -0.8105 -0.0566
H 3.8204 0.6403 -0.9122
H 2.3196 -1.4247 -0.9629
H 2.0752 -1.2648 0.8065
H 1.1013 1.0110 0.4767
H 1.3692 0.9122 -1.2936
H -0.3820 -1.0694 0.3147
H -1.1642 1.4031 -1.3594
H -2.7249 -0.3468 -1.9772
H -2.4993 -1.9775 -0.1089
H -4.1934 -1.5713 -0.4720
CCCCC(C#N)C(C#N)C(C#N)CC#N