28
Cyano
C -4.4329 -0.5007 0.0128
C -2.9995 -0.6762 -0.4920
C -1.9716 0.0740 0.3796
C -2.1735 1.5314 0.2669
N -2.3315 2.6744 0.1788
C -0.5355 -0.3005 -0.0422
C 0.5233 0.2774 0.9157
C 1.9390 -0.2420 0.6182
C 2.5164 0.3297 -0.6888
C 3.9655 -0.1146 -0.9228
C 4.8858 0.5265 0.0258
N 5.6107 1.0315 0.7732
H -5.1232 -1.1013 -0.6163
H -4.5179 -0.8499 1.0638
H -4.7424 0.5640 -0.0469
H -2.9363 -0.3268 -1.5465
H -2.7684 -1.7640 -0.4822
H -2.1213 -0.2224 1.4412
H -0.3515 0.0617 -1.0769
H -0.4383 -1.4086 -0.0455
H 0.5185 1.3881 0.8691
H 0.2637 -0.0164 1.9563
H 2.5935 0.0557 1.4660
H 1.9319 -1.3532 0.5749
H 2.4628 1.4410 -0.6778
H 1.9103 -0.0317 -1.5461
H 4.2713 0.1712 -1.9514
H 4.0509 -1.2184 -0.8307
CCC(C#N)CCCCCC#N