29
Cyano
C 3.8472 -0.0248 -0.5733
C 3.1612 0.4920 0.7004
C 3.0669 1.9613 0.6514
N 2.9924 3.1156 0.6132
C 1.7657 -0.1404 0.9561
C 1.9120 -1.5679 1.2982
N 2.0264 -2.6878 1.5665
C 0.7882 0.0313 -0.2319
C -0.6611 -0.3001 0.1589
C -1.6130 -0.0852 -1.0275
C -3.0522 -0.5284 -0.7200
C -3.7572 0.4060 0.2707
C -5.1621 0.0141 0.4298
N -6.2702 -0.2949 0.5556
H 4.8818 0.3764 -0.6345
H 3.2966 0.2936 -1.4840
H 3.9120 -1.1331 -0.5593
H 3.8196 0.2448 1.5628
H 1.3287 0.3600 1.8492
H 0.8196 1.0838 -0.5885
H 1.0985 -0.6236 -1.0762
H -0.7236 -1.3590 0.4917
H -0.9636 0.3556 1.0028
H -1.6054 0.9848 -1.3308
H -1.2486 -0.6825 -1.8921
H -3.0498 -1.5687 -0.3255
H -3.6203 -0.5325 -1.6770
H -3.7208 1.4530 -0.0984
H -3.2690 0.3564 1.2656
CC(C#N)C(C#N)CCCCCC#N