29
Cyano
C -3.3788 1.5474 0.5226
C -2.6191 0.2306 0.6581
C -1.4544 0.1552 -0.3435
C -0.6156 -1.1356 -0.1789
C -1.4658 -2.3088 -0.4755
N -2.1308 -3.2271 -0.7073
C 0.6397 -1.1484 -1.1031
C 1.3973 -2.4072 -0.9483
N 1.9890 -3.3948 -0.8294
C 1.5967 0.0664 -0.9397
C 2.0290 0.4074 0.5089
C 2.8140 1.7221 0.5333
C 2.8604 -0.6588 1.0908
N 3.5149 -1.4950 1.5511
H -4.2164 1.5701 1.2512
H -2.7048 2.4056 0.7304
H -3.7961 1.6479 -0.5020
H -2.2267 0.1480 1.6951
H -3.3302 -0.6052 0.4835
H -1.8492 0.2163 -1.3823
H -0.8151 1.0451 -0.1724
H -0.2902 -1.2259 0.8799
H 0.2830 -1.1297 -2.1573
H 1.1021 0.9564 -1.3854
H 2.5053 -0.1008 -1.5620
H 1.1380 0.5459 1.1542
H 2.1827 2.5514 0.1482
H 3.7287 1.6473 -0.0944
H 3.1122 1.9741 1.5741
CCCC(C#N)C(C#N)CC(C)C#N