30
Cyano
C 3.2647 1.2529 0.5170
C 2.7337 0.4330 -0.6589
C 2.2667 -0.9756 -0.2296
C 0.7300 -1.1343 -0.1971
C 0.4053 -2.5560 0.0181
N 0.1498 -3.6721 0.1864
C 0.0801 -0.2559 0.8997
C -1.4539 -0.4277 1.0599
C -1.9226 0.4667 2.1377
N -2.2899 1.1676 2.9822
C -2.2721 -0.2114 -0.2489
C -3.6962 -0.5264 -0.0084
N -4.8111 -0.7733 0.1798
C -2.1269 1.2119 -0.8340
C -2.8054 1.3331 -2.1330
N -3.3392 1.4285 -3.1553
H 4.1558 0.7570 0.9574
H 2.4916 1.3697 1.3034
H 3.5626 2.2617 0.1614
H 3.5568 0.3317 -1.3997
H 1.9160 0.9934 -1.1622
H 2.6742 -1.7020 -0.9689
H 2.7006 -1.2572 0.7564
H 0.3365 -0.8416 -1.1932
H 0.5629 -0.4964 1.8742
H 0.3008 0.8115 0.6933
H -1.6402 -1.4664 1.4116
H -1.9221 -0.9426 -1.0076
H -2.5502 1.9667 -0.1374
H -1.0583 1.4532 -1.0026
CCCC(C#N)CC(C#N)C(C#N)CC#N