29
Cyano
N 5.2414 -1.6910 0.7342
C 4.7022 -0.7155 0.4230
C 4.0176 0.5227 0.0282
C 2.6368 0.2353 -0.5742
C 1.6355 -0.2624 0.4837
C 0.2706 -0.6305 -0.1205
C -0.5746 0.6110 -0.4704
C -1.9339 0.2833 -1.1336
C -1.7218 -0.2993 -2.4698
N -1.5548 -0.7568 -3.5196
C -2.8538 -0.6459 -0.3041
C -3.1921 -0.1179 1.0988
C -3.9158 1.1587 1.0401
N -4.4855 2.1649 0.9938
H 4.6437 1.0401 -0.7291
H 3.9224 1.1893 0.9118
H 2.7345 -0.5140 -1.3910
H 2.2623 1.1787 -1.0233
H 2.0481 -1.1734 0.9693
H 1.5037 0.5078 1.2751
H 0.4182 -1.2674 -1.0194
H -0.2730 -1.2355 0.6353
H -0.7472 1.2101 0.4489
H -0.0058 1.2658 -1.1643
H -2.4667 1.2457 -1.2922
H -3.8079 -0.7955 -0.8583
H -2.3902 -1.6510 -0.2043
H -2.2748 0.0025 1.7104
H -3.8390 -0.8596 1.6133
N#CCCCCCC(C#N)CCC#N