26
Fluoro
C 3.2078 1.2925 0.8200
C 1.9423 0.6643 0.2411
C 2.0256 -0.8696 0.2413
F 2.0546 -1.3431 1.5434
C 0.8681 -1.5313 -0.5299
C -0.5250 -1.2883 0.0913
C -1.3163 -0.2052 -0.6596
C -2.6709 0.0654 0.0099
C -3.4191 1.1888 -0.7036
F -3.4475 -1.0811 -0.0149
H 4.0941 1.0043 0.2153
H 3.3577 0.9650 1.8707
H 3.1135 2.3987 0.8043
H 1.8084 1.0329 -0.7992
H 1.0751 0.9961 0.8511
H 2.9735 -1.1748 -0.2542
H 0.8935 -1.2071 -1.5938
H 1.0592 -2.6269 -0.5354
H -0.4369 -1.0188 1.1663
H -1.1018 -2.2380 0.0412
H -0.7306 0.7374 -0.6861
H -1.4850 -0.5357 -1.7083
H -2.5097 0.3644 1.0687
H -4.3941 1.3654 -0.2022
H -2.8285 2.1291 -0.6681
H -3.6081 0.9155 -1.7638
CCC(F)CCCC(C)F