26
Fluoro
C -2.8419 1.5622 -0.2095
C -1.6486 0.9018 0.4746
C -1.7286 -0.6287 0.3737
C -0.5287 -1.3244 1.0511
C 0.5179 -1.8655 0.0580
C 1.2405 -0.7898 -0.7724
C 2.1414 0.1275 0.0733
F 3.0941 -0.6303 0.7337
C 2.8512 1.1614 -0.8005
F 1.9286 2.0063 -1.3919
H -2.8613 1.2993 -1.2887
H -2.7611 2.6656 -0.1146
H -3.7906 1.2333 0.2658
H -1.6373 1.2042 1.5444
H -0.7184 1.2745 -0.0004
H -1.8132 -0.9368 -0.6916
H -2.6613 -0.9600 0.8819
H -0.9172 -2.1993 1.6174
H -0.0497 -0.6678 1.8079
H 0.0162 -2.5716 -0.6393
H 1.2709 -2.4582 0.6213
H 0.4991 -0.1907 -1.3408
H 1.8739 -1.3107 -1.5236
H 1.5378 0.6714 0.8288
H 3.5373 1.7686 -0.1729
H 3.4489 0.6579 -1.5901
CCCCCCC(F)CF