26
Fluoro
C -3.4353 0.1981 0.5162
C -2.7667 -0.9232 -0.2781
C -1.9484 -0.4171 -1.4806
C -0.7162 0.4512 -1.1477
F -1.1050 1.6593 -0.5942
C 0.3072 -0.2530 -0.2321
F -0.1590 -0.2482 1.0729
C 1.6797 0.4442 -0.2795
F 2.1755 0.4054 -1.5737
C 2.6834 -0.2363 0.6647
C 4.0347 0.4750 0.6555
H -2.6834 0.7740 1.0931
H -4.1547 -0.2413 1.2390
H -3.9895 0.8808 -0.1623
H -3.5675 -1.5880 -0.6688
H -2.1391 -1.5440 0.3942
H -1.6052 -1.3026 -2.0592
H -2.6183 0.1609 -2.1542
H -0.2293 0.6812 -2.1202
H 0.4328 -1.3079 -0.5619
H 1.5580 1.5076 0.0236
H 2.8299 -1.2947 0.3568
H 2.2910 -0.2267 1.7047
H 4.7242 -0.0293 1.3650
H 3.9157 1.5340 0.9692
H 4.4858 0.4406 -0.3588
CCCC(F)C(F)C(F)CC