26
Fluoro
C 3.8145 0.2421 -0.0379
C 2.7362 -0.8426 -0.0543
C 1.3659 -0.3164 -0.5170
F 0.5963 -1.4039 -0.8929
C 0.6380 0.4643 0.5966
C -0.5339 1.3204 0.0797
C -1.7215 0.5379 -0.5118
C -2.4626 -0.3287 0.5238
F -1.7294 -1.4673 0.8093
C -3.8393 -0.7521 0.0101
F -3.7137 -1.5095 -1.1413
H 3.8977 0.7220 -1.0362
H 4.7939 -0.2171 0.2129
H 3.5927 1.0158 0.7248
H 3.0668 -1.6385 -0.7569
H 2.6516 -1.3019 0.9548
H 1.5038 0.3319 -1.4101
H 0.2965 -0.2304 1.3915
H 1.3494 1.1643 1.0812
H -0.1499 2.0182 -0.6963
H -0.9052 1.9516 0.9166
H -1.3944 -0.0819 -1.3720
H -2.4313 1.2916 -0.9188
H -2.6048 0.2488 1.4631
H -4.4643 0.1411 -0.2036
H -4.3532 -1.3598 0.7846
CCC(F)CCCC(F)CF