26
Fluoro
C -2.8248 1.4169 0.4998
C -2.8261 -0.0809 0.8079
C -1.7435 -0.8538 0.0338
F -1.9903 -2.2103 0.1702
C -0.3185 -0.5433 0.5300
F -0.2042 -0.8923 1.8665
C 0.7337 -1.3124 -0.2891
C 2.1783 -0.8943 0.0631
C 2.8153 0.0536 -0.9689
C 2.1332 1.4201 -1.0188
F 4.1486 0.2345 -0.6434
H -3.7106 1.8905 0.9731
H -2.8766 1.5899 -0.5961
H -1.9166 1.9042 0.9099
H -3.8199 -0.4889 0.5217
H -2.7052 -0.2359 1.9018
H -1.8226 -0.6004 -1.0464
H -0.1260 0.5435 0.4345
H 0.5459 -1.1768 -1.3770
H 0.6170 -2.3979 -0.0760
H 2.2324 -0.4400 1.0770
H 2.8035 -1.8134 0.0980
H 2.7715 -0.4109 -1.9780
H 1.1084 1.3290 -1.4350
H 2.7108 2.0993 -1.6808
H 2.0863 1.8699 -0.0042
CCC(F)C(F)CCC(C)F