29
Hydroxy
C -4.2908 0.3290 -0.0343
C -2.8218 0.0977 -0.3826
C -2.1529 -0.8916 0.5990
O -2.1198 -0.3884 1.9131
C -0.7469 -1.3357 0.1397
C 0.2888 -0.1994 0.0823
C 1.6608 -0.7340 -0.3607
C 2.6994 0.3818 -0.5857
O 3.8130 -0.1780 -1.2348
C 3.1480 1.0250 0.7389
O 4.1064 2.0211 0.5005
H -4.7399 1.0318 -0.7674
H -4.8528 -0.6284 -0.0721
H -4.3843 0.7701 0.9807
H -2.7653 -0.3091 -1.4157
H -2.2974 1.0768 -0.3689
H -2.7764 -1.8127 0.6165
H -1.7689 0.5390 1.8798
H -0.3828 -2.1184 0.8414
H -0.8312 -1.8064 -0.8647
H 0.3826 0.2583 1.0879
H -0.0456 0.5759 -0.6387
H 1.5317 -1.2828 -1.3200
H 2.0430 -1.4593 0.3912
H 2.2404 1.1669 -1.2332
H 4.2399 0.5473 -1.7618
H 3.5514 0.2496 1.4311
H 2.2821 1.5054 1.2380
H 4.9893 1.5685 0.4641
CCC(O)CCCC(O)CO