29
Hydroxy
C -3.8724 0.6306 -0.4878
C -3.2981 -0.5147 0.3456
C -1.7659 -0.4641 0.4480
C -1.0749 -0.7742 -0.8934
C 0.4525 -0.9793 -0.7655
O 0.7216 -2.0653 0.0854
C 1.1907 0.2808 -0.2469
O 0.8243 1.4187 -0.9895
C 2.7220 0.0860 -0.2795
C 3.4620 1.2918 0.3101
O 4.8427 1.0513 0.3274
H -3.5177 1.6094 -0.1006
H -4.9811 0.6088 -0.4300
H -3.5803 0.5259 -1.5532
H -3.7210 -0.4452 1.3713
H -3.6214 -1.4874 -0.0849
H -1.4511 -1.2140 1.2055
H -1.4579 0.5385 0.8147
H -1.2731 0.0457 -1.6158
H -1.5133 -1.7012 -1.3238
H 0.8446 -1.2072 -1.7852
H 0.5008 -2.8905 -0.4210
H 0.8951 0.4505 0.8111
H 1.0923 1.2593 -1.9324
H 2.9950 -0.8157 0.3111
H 3.0590 -0.0751 -1.3271
H 3.2408 2.2119 -0.2774
H 3.1224 1.4610 1.3541
H 5.1624 1.1636 -0.6059
CCCCC(O)C(O)CCO