29
Hydroxy
C 4.4280 -0.1046 -0.3274
C 3.0025 -0.6462 -0.3879
C 1.9824 0.4341 -0.0016
C 0.5298 -0.0670 -0.1351
O 0.3144 -1.1249 0.7665
C -0.4681 1.0783 0.1590
O -0.5162 1.3293 1.5416
C -1.8889 0.8161 -0.3973
C -2.6228 -0.3821 0.2416
C -4.1351 -0.2587 0.0311
O -2.1753 -1.5753 -0.3476
H 5.1430 -0.9080 -0.6036
H 4.5511 0.7396 -1.0388
H 4.6648 0.2439 0.7005
H 2.9230 -1.5090 0.3080
H 2.7981 -1.0045 -1.4203
H 2.1285 1.3125 -0.6687
H 2.1684 0.7594 1.0459
H 0.3716 -0.4061 -1.1873
H 0.5239 -1.9677 0.2855
H -0.0982 1.9933 -0.3622
H -0.9187 2.2295 1.6585
H -2.4819 1.7422 -0.2270
H -1.8364 0.6752 -1.4996
H -2.4267 -0.3951 1.3389
H -4.3735 -0.2200 -1.0535
H -4.6522 -1.1335 0.4794
H -4.5200 0.6606 0.5221
H -2.4155 -2.3113 0.2743
CCCC(O)C(O)CC(C)O