29
Hydroxy
O -4.8661 0.2399 -0.7845
C -4.4803 -0.0636 0.5297
C -3.1031 -0.7332 0.5495
C -1.9895 0.2302 0.1174
C -0.6147 -0.4429 0.2077
C 0.5001 0.5206 -0.2238
C 1.8837 -0.1545 -0.2030
O 2.2209 -0.5077 1.1156
C 2.9508 0.8058 -0.7583
C 4.3400 0.1583 -0.8323
O 4.3364 -0.9401 -1.7043
H -4.5525 1.1630 -0.9714
H -5.2235 -0.7701 0.9561
H -4.4815 0.8472 1.1729
H -3.1172 -1.6190 -0.1228
H -2.9004 -1.0878 1.5839
H -2.1673 0.5553 -0.9310
H -2.0029 1.1278 0.7743
H -0.6015 -1.3402 -0.4495
H -0.4381 -0.7687 1.2560
H 0.5082 1.4037 0.4530
H 0.2847 0.8766 -1.2558
H 1.8506 -1.0567 -0.8602
H 1.9439 -1.4521 1.2460
H 2.6603 1.1425 -1.7778
H 3.0121 1.7064 -0.1085
H 5.0841 0.9138 -1.1724
H 4.6536 -0.1834 0.1767
H 4.3092 -0.5712 -2.6256
OCCCCCC(O)CCO