27
Hydroxy
C 4.1632 0.5502 0.3449
C 3.0679 -0.5056 0.4631
C 1.6749 0.1270 0.3633
C 0.5773 -0.9423 0.4713
C -0.8366 -0.3404 0.5177
C -1.2677 0.2584 -0.8351
C -2.7352 0.7377 -0.8754
C -3.7511 -0.4124 -0.7919
O -2.9824 1.7173 0.1033
H 5.1584 0.0637 0.4221
H 4.0963 1.0679 -0.6357
H 4.0688 1.2973 1.1617
H 3.1751 -1.0258 1.4399
H 3.1992 -1.2527 -0.3500
H 1.5901 0.6535 -0.6112
H 1.5505 0.8700 1.1817
H 0.6566 -1.6537 -0.3800
H 0.7328 -1.5215 1.4080
H -1.5345 -1.1555 0.8003
H -0.8798 0.4353 1.3123
H -1.1134 -0.4933 -1.6401
H -0.6223 1.1318 -1.0679
H -2.8849 1.2200 -1.8660
H -3.7350 -0.8972 0.2059
H -3.5338 -1.1751 -1.5695
H -4.7740 -0.0165 -0.9665
H -3.0604 1.2619 0.9815
CCCCCCC(C)O