29
Hydroxy
C -4.0630 0.1333 0.0049
C -3.1269 0.2870 -1.1961
C -1.6841 0.6994 -0.8319
O -1.6636 1.9646 -0.2154
C -0.9514 -0.3701 0.0178
C 0.5600 -0.0810 0.1871
O 1.0342 -0.7213 1.3457
C 1.3792 -0.5250 -1.0507
C 2.7912 0.0851 -1.1011
C 3.7441 -0.5040 -0.0540
O 5.0602 -0.0998 -0.3177
H -3.7092 -0.6693 0.6841
H -4.1504 1.0875 0.5644
H -5.0752 -0.1464 -0.3557
H -3.5546 1.0541 -1.8779
H -3.1030 -0.6734 -1.7558
H -1.1474 0.8009 -1.7976
H -1.9566 1.8544 0.7259
H -1.0861 -1.3743 -0.4416
H -1.4163 -0.4092 1.0266
H 0.6951 1.0123 0.3348
H 0.8933 -1.6977 1.2293
H 0.8572 -0.2039 -1.9755
H 1.4426 -1.6345 -1.0940
H 3.2151 -0.1153 -2.1096
H 2.7338 1.1886 -0.9782
H 3.7051 -1.6133 -0.0935
H 3.4510 -0.1810 0.9691
H 5.1256 0.8524 -0.0438
CCC(O)CC(O)CCCO