27
Hydroxy
C 3.7767 0.8804 0.5194
C 3.3287 -0.5171 0.0921
C 1.9196 -0.8698 0.5932
C 0.8190 -0.0825 -0.1370
C -0.5890 -0.5172 0.3185
O -0.8091 -1.8776 0.0336
C -1.6738 0.3611 -0.3369
C -3.0763 0.0065 0.1753
C -4.1363 0.9061 -0.4538
H 3.1732 1.6603 0.0109
H 4.8400 1.0290 0.2362
H 3.6850 0.9991 1.6200
H 4.0453 -1.2550 0.5135
H 3.3736 -0.6008 -1.0155
H 1.8529 -0.6878 1.6883
H 1.7616 -1.9569 0.4229
H 0.9424 1.0004 0.0777
H 0.9182 -0.2314 -1.2348
H -0.6528 -0.3795 1.4206
H -0.7502 -1.9913 -0.9513
H -1.4663 1.4291 -0.1043
H -1.6390 0.2360 -1.4419
H -3.1135 0.1259 1.2800
H -3.3135 -1.0508 -0.0728
H -4.1357 0.7887 -1.5584
H -5.1388 0.6256 -0.0674
H -3.9418 1.9694 -0.1975
CCCCC(O)CCC