29
Hydroxy
C 4.2954 0.5062 0.2965
C 3.1280 -0.2956 -0.2886
O 3.2905 -1.6648 -0.0121
C 1.7771 0.2229 0.2427
C 0.5934 -0.5134 -0.4048
C -0.7616 0.0687 0.0411
O -0.9154 -0.1160 1.4260
C -1.9155 -0.6414 -0.7002
C -3.2757 0.0890 -0.6150
C -3.8454 0.1218 0.8044
O -3.1701 1.4010 -1.1041
H 4.3067 0.4290 1.4048
H 5.2562 0.1142 -0.0993
H 4.2076 1.5760 0.0103
H 3.1494 -0.1622 -1.3924
H 3.2656 -1.7771 0.9744
H 1.6931 1.3093 0.0186
H 1.7409 0.0939 1.3466
H 0.6351 -1.5926 -0.1386
H 0.6823 -0.4247 -1.5102
H -0.7821 1.1533 -0.2215
H -0.6014 0.7148 1.8697
H -1.6577 -0.7300 -1.7787
H -2.0254 -1.6782 -0.3120
H -4.0028 -0.4785 -1.2419
H -4.8978 0.4756 0.7731
H -3.8310 -0.8936 1.2545
H -3.2704 0.8211 1.4462
H -3.0691 1.3327 -2.0895
CC(O)CCC(O)CC(C)O