29
Hydroxy
C 3.8239 0.3937 -0.7408
C 2.9836 -0.7729 -0.2163
C 1.6894 -0.3325 0.5013
O 1.9943 0.5295 1.5680
C 0.7002 0.3554 -0.4662
C -0.7036 0.6140 0.1309
O -0.6067 1.4150 1.2810
C -1.4443 -0.6996 0.4711
C -2.9742 -0.5547 0.6408
C -3.7090 -0.3137 -0.6881
O -3.2995 0.4232 1.5978
H 4.7795 0.0029 -1.1495
H 4.0592 1.1082 0.0759
H 3.2937 0.9248 -1.5580
H 3.6039 -1.3582 0.4970
H 2.7312 -1.4486 -1.0624
H 1.2118 -1.2579 0.8947
H 2.3812 -0.0316 2.2900
H 0.5864 -0.2647 -1.3827
H 1.1209 1.3330 -0.7861
H -1.2844 1.1566 -0.6478
H -0.3966 2.3357 0.9743
H -1.2503 -1.4569 -0.3202
H -1.0345 -1.1103 1.4195
H -3.3439 -1.5283 1.0305
H -3.4515 -1.1087 -1.4198
H -3.4532 0.6738 -1.1234
H -4.8057 -0.3413 -0.5151
H -3.2018 1.3144 1.1720
CCC(O)CC(O)CC(C)O