28
Nitro
C 4.1343 0.3452 0.1058
C 3.4071 -0.9880 0.2789
C 2.0074 -0.8266 0.8918
C 1.0097 -0.1764 -0.0784
C -0.4005 -0.1439 0.5238
C -1.3992 0.5046 -0.4475
C -2.8028 0.6790 0.1680
C -3.5109 -0.6633 0.3988
N -3.6176 1.5276 -0.7022
O -3.9818 1.1198 -1.8252
O -3.8328 2.8430 -0.3632
H 3.6356 0.9684 -0.6649
H 5.1769 0.1558 -0.2259
H 4.1654 0.8994 1.0679
H 3.3382 -1.5053 -0.7026
H 4.0137 -1.6295 0.9544
H 1.6353 -1.8382 1.1656
H 2.0726 -0.2273 1.8265
H 0.9888 -0.7530 -1.0294
H 1.3301 0.8639 -0.3006
H -0.7191 -1.1845 0.7466
H -0.3793 0.4335 1.4742
H -1.4670 -0.1047 -1.3758
H -1.0155 1.5099 -0.7306
H -2.7012 1.1840 1.1547
H -3.0001 -1.2440 1.1944
H -3.5311 -1.2647 -0.5350
H -4.5561 -0.4847 0.7300
CCCCCCC(C)[N+](=O)[O-]