32
Nitro
C 4.7368 0.0405 0.5963
C 3.4085 0.3857 -0.0711
C 2.2596 -0.4462 0.5177
C 0.8878 -0.0494 -0.0697
C -0.2478 -0.8359 0.6317
C -1.6371 -0.1732 0.5368
C -2.3247 -0.3240 -0.8442
C -3.8612 -0.2622 -0.7298
N -4.3167 1.0251 -0.2121
O -4.5981 1.9545 -0.9961
O -4.3928 1.2365 1.1448
N -1.8571 0.6828 -1.8007
O -1.8585 0.4152 -3.0200
O -1.6605 1.9874 -1.4079
N 0.8771 -0.2839 -1.5162
O 0.8797 -1.4478 -1.9692
O 1.1290 0.7640 -2.3714
H 5.5487 0.6492 0.1453
H 4.9746 -1.0346 0.4486
H 4.6913 0.2604 1.6842
H 3.2032 1.4683 0.0762
H 3.5005 0.1881 -1.1606
H 2.4484 -1.5262 0.3288
H 2.2417 -0.2884 1.6190
H 0.7343 1.0357 0.1254
H -0.2929 -1.8830 0.2613
H -0.0115 -0.9054 1.7166
H -2.2725 -0.6754 1.2996
H -1.5762 0.8927 0.8439
H -2.0790 -1.3341 -1.2429
H -4.3125 -0.4411 -1.7307
H -4.2221 -1.0756 -0.0634
CCCC(CCC(C[N+](=O)[O-])[N+](=O)[O-])[N+](=O)[O-]