30
Nitro
C 3.8745 0.9320 1.2790
C 3.2037 -0.0037 0.2774
C 1.6752 0.0402 0.4155
C 0.9836 -0.9154 -0.5842
C -0.5171 -1.1135 -0.2754
C -1.3642 0.1672 -0.3994
C -2.8551 -0.1081 -0.1191
C -3.6992 1.1432 -0.3773
N -3.0548 -0.5657 1.2572
O -2.6775 0.1324 2.2216
O -3.7585 -1.7227 1.4975
N 1.1799 -0.4916 -1.9745
O 1.1561 0.7170 -2.2888
O 1.2058 -1.4399 -2.9702
H 4.9769 0.8786 1.1570
H 3.6174 0.6341 2.3178
H 3.5485 1.9798 1.1061
H 3.5010 0.3005 -0.7493
H 3.5671 -1.0392 0.4558
H 1.3245 1.0830 0.2595
H 1.4032 -0.2600 1.4515
H 1.4578 -1.9154 -0.4626
H -0.9197 -1.8809 -0.9727
H -0.6152 -1.5233 0.7535
H -0.9956 0.9400 0.3081
H -1.2688 0.5677 -1.4310
H -3.2048 -0.8993 -0.8197
H -3.3699 1.9800 0.2753
H -3.6061 1.4567 -1.4390
H -4.7687 0.9265 -0.1696
CCCC(CCC(C)[N+](=O)[O-])[N+](=O)[O-]