30
Nitro
C 2.8359 0.8925 -1.6985
C 2.9651 0.2155 -0.3331
C 2.1793 -1.1197 -0.2551
C 0.8383 -0.9844 0.5009
C -0.1765 -0.0909 -0.2270
C -1.5458 -0.1388 0.4618
C -2.5518 0.7762 -0.2502
C -3.9490 0.6949 0.3759
N -3.9485 1.2296 1.7333
O -3.9113 2.4628 1.9213
O -3.8675 0.3768 2.8094
N 3.0029 -2.1314 0.4098
O 3.5848 -3.0042 -0.2668
O 3.2978 -2.0133 1.7490
H 3.2627 0.2402 -2.4899
H 1.7760 1.1074 -1.9413
H 3.3969 1.8507 -1.6919
H 2.6330 0.9199 0.4604
H 4.0485 0.0305 -0.1608
H 1.9519 -1.4840 -1.2838
H 1.0175 -0.5818 1.5223
H 0.4007 -2.0014 0.6126
H -0.2840 -0.4313 -1.2804
H 0.1870 0.9588 -0.2223
H -1.4317 0.1863 1.5188
H -1.9271 -1.1837 0.4510
H -2.1933 1.8285 -0.2188
H -2.6295 0.4728 -1.3172
H -4.6597 1.2808 -0.2466
H -4.3026 -0.3592 0.3850
CCC(CCCCC[N+](=O)[O-])[N+](=O)[O-]