32
Nitro
C 3.5250 0.9489 1.1777
C 3.2879 0.3177 -0.1943
C 1.7957 0.2224 -0.5613
C 1.0193 -0.8221 0.2805
C -0.5094 -0.8471 -0.0035
C -1.2052 0.4892 0.3648
C -2.7306 0.3389 0.5559
C -3.3361 1.6222 1.1345
N -3.3903 0.0038 -0.7068
O -3.3835 0.8072 -1.6630
O -4.0294 -1.2061 -0.8464
N -0.7932 -1.2373 -1.3890
O -0.6665 -0.4232 -2.3274
O -1.1290 -2.5405 -1.6734
N 1.5818 -2.1628 0.0925
O 1.6417 -2.9500 1.0593
O 1.8675 -2.6312 -1.1698
H 4.6118 1.1291 1.3169
H 2.9938 1.9211 1.2574
H 3.1843 0.2720 1.9878
H 3.7929 0.9502 -0.9564
H 3.7645 -0.6852 -0.2297
H 1.3397 1.2279 -0.4434
H 1.7306 -0.0430 -1.6371
H 1.1372 -0.5461 1.3513
H -0.9327 -1.6288 0.6674
H -0.7752 0.8585 1.3222
H -0.9998 1.2640 -0.4049
H -2.9197 -0.4743 1.2918
H -4.4344 1.5028 1.2506
H -3.1379 2.4868 0.4654
H -2.9011 1.8351 2.1343
CCCC(C(CC(C)[N+](=O)[O-])[N+](=O)[O-])[N+](=O)[O-]