30
Nitro
C 4.6967 0.9250 0.0059
C 3.2450 1.0162 -0.4551
C 2.4218 -0.1657 0.0699
C 0.9640 -0.0714 -0.3962
C 0.1368 -1.2474 0.1441
C -1.2903 -1.2884 -0.4318
C -2.1815 -0.1125 0.0225
C -3.5879 -0.2376 -0.5870
N -4.4088 0.9137 -0.2282
O -4.2879 1.9868 -0.8540
O -5.1850 0.8763 0.9065
N -2.2691 -0.0667 1.4835
O -1.8883 0.9480 2.1024
O -2.7795 -1.1345 2.1859
H 4.7508 0.9392 1.1154
H 5.2671 1.7923 -0.3884
H 5.1639 -0.0090 -0.3726
H 2.8099 1.9703 -0.0852
H 3.2208 1.0257 -1.5667
H 2.8665 -1.1158 -0.3002
H 2.4525 -0.1703 1.1820
H 0.9333 -0.0759 -1.5081
H 0.5344 0.8857 -0.0313
H 0.1010 -1.2055 1.2542
H 0.6411 -2.1987 -0.1348
H -1.7629 -2.2451 -0.1180
H -1.2313 -1.3023 -1.5425
H -1.7399 0.8358 -0.3557
H -4.0806 -1.1688 -0.2311
H -3.5130 -0.2991 -1.6952
CCCCCCC(C[N+](=O)[O-])[N+](=O)[O-]