32
Nitro
C -3.9971 0.1109 1.2483
C -2.8334 -0.0056 0.2599
C -1.8474 -1.1066 0.7074
C -0.6440 -1.3065 -0.2379
C 0.4494 -0.2196 -0.1008
C 1.7774 -0.7125 -0.7202
C 2.9239 0.3122 -0.6439
C 3.3886 0.5811 0.7923
N 4.5814 1.4188 0.7829
O 4.4717 2.6594 0.7023
O 5.8212 0.8399 0.6445
N 0.0272 1.0297 -0.7377
O -0.2728 1.0553 -1.9497
O 0.1192 2.2135 -0.0431
N -3.3529 -0.2700 -1.0830
O -3.8807 -1.3690 -1.3539
O -3.4416 0.7587 -1.9915
H -4.6908 0.9147 0.9218
H -3.6170 0.3671 2.2603
H -4.5602 -0.8452 1.3062
H -2.3091 0.9718 0.2624
H -1.4778 -0.8820 1.7319
H -2.3974 -2.0716 0.7719
H -0.9808 -1.3927 -1.2933
H -0.1953 -2.2896 0.0266
H 0.6170 -0.0407 0.9832
H 2.1007 -1.6484 -0.2134
H 1.6063 -0.9626 -1.7904
H 2.6226 1.2664 -1.1268
H 3.7824 -0.0929 -1.2231
H 2.5886 1.0948 1.3667
H 3.6210 -0.3789 1.3023
CC(CCC(CCC[N+](=O)[O-])[N+](=O)[O-])[N+](=O)[O-]