32
Nitro
C -3.3196 1.8879 -0.5810
C -2.3563 0.7437 -0.8843
C -2.0001 -0.0340 0.3921
C -1.2089 -1.3358 0.1159
C 0.1382 -1.1393 -0.6409
C 1.1501 -0.2355 0.1031
C 2.3964 0.0485 -0.7523
C 3.4146 0.9261 -0.0144
N 2.8867 2.2672 0.2126
O 2.8199 3.0826 -0.7299
O 2.3525 2.5994 1.4358
N 0.7319 -2.4472 -0.9378
O 0.4323 -3.0359 -1.9969
O 1.4571 -3.1214 0.0185
N -1.0081 -2.0690 1.3699
O -1.2046 -3.3010 1.4106
O -0.5541 -1.4246 2.4982
H -3.5444 2.4425 -1.5164
H -4.2713 1.4927 -0.1662
H -2.8648 2.5913 0.1488
H -2.8298 0.0623 -1.6241
H -1.4376 1.1765 -1.3336
H -2.9448 -0.3182 0.9068
H -1.4440 0.6282 1.0885
H -1.8570 -1.9580 -0.5437
H -0.0891 -0.6478 -1.6123
H 0.6714 0.7356 0.3404
H 1.4612 -0.7111 1.0573
H 2.0979 0.5476 -1.7002
H 2.8944 -0.9098 -1.0141
H 4.3410 0.9979 -0.6247
H 3.6888 0.4584 0.9563
CCCC(C(CCC[N+](=O)[O-])[N+](=O)[O-])[N+](=O)[O-]