30
Nitro
C -4.4116 0.8383 -0.6501
C -3.3842 -0.1977 -0.2033
C -1.9708 0.3955 -0.1863
C -0.9408 -0.6491 0.2682
C 0.4966 -0.0930 0.2399
C 1.5100 -1.2113 0.5635
C 2.9808 -0.7504 0.5617
C 3.5460 -0.4839 -0.8441
N 3.1636 0.8347 -1.3388
O 3.5412 1.8620 -0.7388
O 2.5853 0.9557 -2.5809
N 0.6304 1.0127 1.1914
O 0.7784 2.1805 0.7766
O 0.4921 0.7897 2.5424
H -4.4152 1.7036 0.0465
H -4.1795 1.1942 -1.6765
H -5.4234 0.3809 -0.6533
H -3.4199 -1.0628 -0.9009
H -3.6530 -0.5548 0.8148
H -1.7093 0.7509 -1.2075
H -1.9500 1.2647 0.5068
H -1.0023 -1.5278 -0.4116
H -1.1900 -0.9935 1.2964
H 0.6944 0.2722 -0.7903
H 1.2796 -1.6238 1.5705
H 1.3893 -2.0464 -0.1612
H 3.5829 -1.5694 1.0123
H 3.1196 0.1364 1.2163
H 3.2043 -1.2711 -1.5510
H 4.6556 -0.5369 -0.8034
CCCCC(CCC[N+](=O)[O-])[N+](=O)[O-]