32
Nitro
C -4.1635 0.2100 0.8933
C -3.2129 0.7601 -0.1663
C -1.7510 0.4394 0.1803
C -0.7762 0.9172 -0.9179
C 0.7026 0.6207 -0.5738
C 1.0613 -0.8915 -0.5665
C 2.5507 -1.1488 -0.8979
C 3.5610 -0.5200 0.0803
N 3.6051 -1.2344 1.3526
O 3.8728 -2.4534 1.3770
O 3.6240 -0.5212 2.5284
N 0.6894 -1.5526 0.6891
O 0.7478 -0.9505 1.7817
O 0.4199 -2.9013 0.6847
N -0.9339 2.3549 -1.1501
O -0.7623 3.1715 -0.2208
O -1.1635 2.8217 -2.4233
H -4.0703 -0.8950 0.9600
H -5.2100 0.4617 0.6206
H -3.9368 0.6579 1.8843
H -3.3572 1.8598 -0.2328
H -3.4721 0.3108 -1.1497
H -1.6642 -0.6612 0.2916
H -1.4861 0.9126 1.1515
H -1.0286 0.3805 -1.8601
H 0.9698 1.0979 0.3936
H 1.3209 1.1225 -1.3511
H 0.4844 -1.3757 -1.3858
H 2.7281 -2.2444 -0.9633
H 2.7570 -0.7426 -1.9124
H 4.5725 -0.5564 -0.3787
H 3.3214 0.5502 0.2527
CCCC(CC(CC[N+](=O)[O-])[N+](=O)[O-])[N+](=O)[O-]