14
qm7 6316 -1411.7
O          2.36470       -1.01060       -1.15540
C          2.12950        0.22190       -0.64680
O          1.28820        0.97550       -1.11460
C          2.94250        0.53510        0.58750
C          4.38530        0.13160        0.47800
C          5.05150       -0.61470        1.60390
N          4.71680       -1.29130        0.34920
H          3.07620       -1.47480       -0.65120
H          2.44950        0.04860        1.43730
H          2.89900        1.61690        0.75790
H          4.97050        0.81680       -0.12560
H          4.46680       -0.90480        2.46870
H          6.10250       -0.43430        1.79580
H          5.57380       -1.42520       -0.20090
