17
qm7 3773 -1646.38
O          2.46870       -1.03810        1.25210
C          1.47120       -0.04880        1.45010
C          1.58820        1.02880        0.38480
C          2.93400        1.74740        0.43040
O          2.90610        2.78890       -0.55050
C          4.02140        3.56700       -0.66890
C          5.16660        3.51320        0.02100
H          2.30140       -1.74720        1.89660
H          1.59160        0.37580        2.45110
H          0.48960       -0.52850        1.38860
H          0.77640        1.75830        0.50250
H          1.46330        0.58600       -0.61220
H          3.74420        1.04540        0.20330
H          3.08550        2.18050        1.42600
H          3.86220        4.29890       -1.45430
H          5.34950        2.79150        0.80750
H          5.96540        4.21340       -0.20140
