12
qm7 6264 -1248.73
O          2.63080        3.26980       -0.27690
C          2.46910        2.33810       -1.04970
C          3.18760        1.02600       -0.86980
O          2.74590        0.00400       -1.37440
C          4.42480        1.09340       -0.06290
C          5.48230        0.02600       -0.19610
N          5.65690        1.31990       -0.84010
H          1.78350        2.36040       -1.91070
H          4.35540        1.62570        0.87940
H          5.29280       -0.81400       -0.85490
H          6.11460       -0.18760        0.65640
H          6.30780        1.90750       -0.31350
