18
qm7 1729 -1750.31
C          0.89990       -0.36650        0.24580
N          2.27060       -0.15480       -0.22510
C          2.63210       -1.21190       -1.17460
C          2.43680        1.16810       -0.86210
C          2.31910        2.34890        0.11590
C          2.57110        3.63020       -0.56750
C          2.77070        4.67620       -1.12140
H          0.64520        0.33050        1.05000
H          0.79050       -1.37000        0.67310
H          0.16420       -0.25570       -0.55900
H          2.55070       -2.19800       -0.70360
H          3.67530       -1.10510       -1.49240
H          1.99540       -1.20140       -2.06690
H          1.72100        1.29140       -1.68680
H          3.43790        1.21590       -1.31330
H          3.03660        2.22470        0.93570
H          1.31940        2.38450        0.56180
H          2.94680        5.60610       -1.61160
