17
qm7 1541 -1635.84
C          0.99400       -0.04020       -0.01190
C          2.52000        0.00000        0.00000
N          3.05120       -0.70340       -1.16540
C          3.00200        1.36120        0.00000
C          3.39930        2.48310        0.00000
C          3.88130        3.84430        0.00000
N          2.76710        4.77490       -0.12480
H          0.58360        0.47160        0.86660
H          0.62660       -1.07270        0.00380
H          0.58030        0.45220       -0.90070
H          2.87520       -0.51530        0.89940
H          2.73490       -0.22630       -2.00810
H          2.65280       -1.63880       -1.20280
H          4.58340        4.00500       -0.82500
H          4.41880        4.05600        0.93000
H          2.31470        4.61930       -1.02310
H          3.13210        5.72310       -0.14530
