15
qm7 1035 -1414.65
C          2.88760       -1.16090       -0.47810
N          2.34450        0.06490        0.09240
C          3.35840        1.12510        0.18530
C          3.56320        2.05230       -0.97890
C          2.91130        2.56210        0.27040
O          3.72300        3.41840        1.08810
H          2.09830       -1.91630       -0.54330
H          3.69490       -1.56520        0.14130
H          3.26810       -0.99020       -1.49040
H          1.97310       -0.13790        1.02100
H          4.23830        0.87030        0.77350
H          2.94010        1.92020       -1.85490
H          4.57670        2.36630       -1.19590
H          1.84400        2.75750        0.23810
H          3.61880        4.34780        0.82150
