17
qm7 2538 -1722.67
C          0.97110        0.05800       -0.04550
C          2.48600        0.00530        0.08210
O          2.84720       -1.21450        0.76350
C          3.37750       -0.88080        2.05570
C          3.56860        0.58880        2.04010
C          3.05550        1.09950        0.92230
C          3.04560        2.52490        0.50660
H          0.61240       -0.80150       -0.62340
H          0.63850        0.97440       -0.54350
H          0.48620       -0.00320        0.93530
H          2.95320       -0.01490       -0.90760
H          4.32130       -1.41600        2.19840
H          2.66320       -1.18760        2.82470
H          4.04320        1.14600        2.83270
H          2.78470        2.62370       -0.55340
H          4.03260        2.97820        0.64590
H          2.31270        3.09010        1.08840
