12
qm7 98 -1152.68
C          1.02080        0.01810       -0.15430
N          2.45160        0.01600        0.07190
C          3.14450       -1.25710        0.02360
C          3.16310        1.19310        0.17590
O          4.37930        1.29260        0.27290
H          0.60770        1.02550       -0.05600
H          0.54360       -0.63930        0.57810
H          0.82330       -0.35170       -1.16430
H          2.67610       -1.94350        0.73410
H          4.20260       -1.14840        0.27770
H          3.06130       -1.66300       -0.98800
H          2.51620        2.08580        0.17460
