13
qm7 3560 -1400.35
O          0.97280       -0.02470       -0.18370
C          2.35570       -0.02790        0.06910
C          2.98640       -1.20930       -0.58360
C          3.97400       -0.89330       -1.43050
C          4.20550        0.57800       -1.55040
C          3.11350        1.09120       -0.64090
O          2.84040        2.28180       -0.50130
H          0.67140        0.88450       -0.00030
H          2.55960       -0.00670        1.14310
H          2.66180       -2.22030       -0.37660
H          4.54330       -1.62170       -1.99360
H          5.18840        0.86430       -1.17060
H          4.04410        0.92530       -2.57330
