18
qm7 5459 -1755.67
C          0.73870        0.34870       -0.60470
C          2.13180        0.15800       -0.04590
C          3.00950       -0.88480       -0.71770
C          3.26350        0.56540       -0.97770
N          2.39090        0.46580        1.39090
C          1.23570        0.49850        2.27540
C          2.11730       -0.71160        2.22070
H          0.72190        0.24850       -1.69590
H          0.35620        1.34530       -0.36260
H          0.05460       -0.40640       -0.20540
H          2.58560       -1.47910       -1.51860
H          3.73730       -1.41910       -0.11700
H          4.15050        1.01220       -0.54080
H          3.01830        0.96080       -1.95620
H          0.23010        0.41960        1.88740
H          1.32790        1.15380        3.13410
H          2.81150       -0.87730        3.03470
H          1.72550       -1.60580        1.75330
