14
qm7 7045 -1473.54
C          0.92490        0.10220       -0.02780
C          2.25990        0.05060       -0.04830
C          3.05370        1.22800       -0.01700
C          3.74110        2.21140        0.01100
C          4.58330        3.36830        0.05030
C          4.77920        4.16750       -1.21210
N          3.97160        4.68550       -0.11630
H          0.33550       -0.80850       -0.05090
H          0.39010        1.04700        0.01280
H          2.76990       -0.90730       -0.08840
H          5.41670        3.32370        0.74430
H          4.23570        3.88230       -2.10470
H          5.73790        4.64060       -1.38080
H          4.48360        5.38280        0.42470
