17
qm7 6544 -1589.87
C          0.86250       -0.25530       -0.08990
C          2.38840       -0.22640       -0.12380
C          2.91600       -0.97040       -1.34700
N          2.87140        1.15360       -0.13310
C          2.97020        2.01040        0.90610
N          2.86150        1.51660        2.15290
S          3.18580        3.63540        0.65180
H          0.47890        0.25130        0.80210
H          0.49100       -1.28520       -0.07820
H          0.43770        0.25140       -0.96350
H          2.76930       -0.72640        0.77220
H          2.57020       -0.50570       -2.27740
H          2.58520       -2.01440       -1.34280
H          4.01170       -0.96220       -1.36180
H          2.88120        1.62330       -1.03240
H          3.09720        0.55420        2.34090
H          3.02030        2.16630        2.91410
