14
qm7 7104 -1523.05
C          1.03570       -0.00760        0.24400
C          2.51910       -0.10170        0.00490
C          3.06680       -1.24190       -0.44780
C          3.36890        1.05270        0.26610
C          2.96030        2.24900        0.71780
C          3.87290        3.31580        0.94130
N          4.61390        4.18870        1.12510
H          0.59080        0.77280       -0.38280
H          0.82620        0.21980        1.29470
H          0.52220       -0.94610        0.00670
H          2.45990       -2.11940       -0.65180
H          4.13280       -1.34340       -0.63080
H          4.43360        0.91180        0.07020
H          1.91960        2.45760        0.93250
