12
qm7 5551 -1301.04
N          1.01410        0.03580        0.20180
C          2.38080       -0.02040        0.10170
C          3.14520       -1.10050       -0.03460
C          4.53060       -0.64320       -0.09720
O          5.49500       -1.37440       -0.22730
O          4.56800        0.71220        0.00020
C          3.23590        1.20020        0.14090
H          0.52680       -0.80050       -0.11520
H          0.59070        0.89570       -0.14180
H          2.86240       -2.13480       -0.08990
H          3.01520        1.88150       -0.68650
H          3.14700        1.73290        1.09250
