14
qm7 7125 -1495.74
C          0.98230        0.00140       -0.00730
C          2.52000        0.00000        0.00000
C          3.01280       -0.71380        1.27040
C          3.00330       -0.75350       -1.18560
C          3.40280       -1.35440       -2.14570
C          3.00200        1.36120        0.00000
N          3.38620        2.44620        0.00000
H          0.58570        0.50230       -0.89970
H          0.57750        0.52470        0.86760
H          0.58050       -1.01920       -0.00120
H          2.66540       -0.20440        2.17750
H          4.10920       -0.74470        1.31320
H          2.65630       -1.75030        1.31180
H          3.76310       -1.88090       -3.00070
