15
qm7 2039 -1480.36
N          1.18760        0.23150        0.05160
C          2.60290       -0.10220       -0.03110
C          2.88470       -0.79960       -1.29220
C          3.10860       -1.37970       -2.31980
C          3.39840        1.17100       -0.10630
C          3.65110        1.98270        1.14400
N          4.73580        1.25570        0.50020
H          1.00370        0.62920        0.96940
H          0.65530       -0.63550        0.00650
H          2.89490       -0.71840        0.82670
H          3.30770       -1.89100       -3.23340
H          3.23890        1.72710       -1.02570
H          3.32320        1.59230        2.09900
H          3.66940        3.06230        1.06240
H          5.32830        1.87900       -0.05170
