17
qm7 1566 -1634.77
C          0.99100       -0.01610        0.07040
C          2.52000        0.00000        0.00000
N          3.04820       -0.69980        1.17990
C          3.00420       -0.74770       -1.28930
N          4.46550       -0.97430       -1.32490
C          3.00200        1.36120        0.00000
C          3.39930        2.48310        0.00000
H          0.54830        0.48840       -0.79820
H          0.62000        0.49870        0.96660
H          0.59980       -1.04100        0.09080
H          3.08720       -0.05680        1.96730
H          4.01540       -0.95180        0.95590
H          2.71530       -0.18410       -2.18490
H          2.51820       -1.72890       -1.35020
H          4.93430       -0.06800       -1.32510
H          4.70500       -1.41940       -2.20940
H          3.75320        3.48840        0.00550
