19
qm7 7008 -1899.95
C          0.79640       -0.02230        0.25640
C          2.29120        0.06940        0.02100
C          3.06560        1.07890        0.90240
C          4.16350        0.01240        1.11660
C          3.15430       -1.05690        0.63700
C          5.43840        0.10520        0.34970
C          5.54000        0.63620       -0.87460
H          0.37090       -0.86540       -0.29730
H          0.29700        0.89030       -0.08460
H          0.56150       -0.16070        1.31680
H          2.49940        0.20670       -1.04870
H          2.54930        1.34790        1.83290
H          3.35750        2.00850        0.40520
H          4.40600       -0.10480        2.18200
H          3.52450       -1.79810       -0.07770
H          2.67350       -1.59250        1.46490
H          6.32740       -0.29500        0.83120
H          4.69390        1.04980       -1.41190
H          6.50150        0.66860       -1.37810
