20
qm7 1382 -1914.15
C          0.80610       -0.60070        0.79040
C          2.12650       -0.58830        0.01470
C          2.27120       -1.89510       -0.76760
N          2.13250        0.58880       -0.86390
C          3.43390        0.83620       -1.47860
C          3.34710        2.07970       -2.30980
C          4.12770        3.15790       -2.15570
H          0.69410        0.30710        1.39400
H          0.76620       -1.45630        1.47370
H         -0.05580       -0.66860        0.11660
H          2.94140       -0.51280        0.74560
H          1.51600       -1.97400       -1.55750
H          2.15130       -2.75830       -0.10370
H          3.25910       -1.98120       -1.23050
H          1.88490        1.41340       -0.31620
H          3.71590        0.01400       -2.14430
H          4.21080        0.93560       -0.71130
H          2.59600        2.08040       -3.09740
H          4.89500        3.20320       -1.38990
H          4.00970        4.02210       -2.80190
