17
qm7 472 -1614.45
C          2.24920       -0.77920       -1.34860
N          1.81300        0.34210       -0.52490
C          2.93320        1.12370        0.04290
C          3.69030        0.45900        1.16900
C          3.69230        2.06380       -0.86390
C          2.73710        2.62010        0.14960
H          2.85610       -0.44450       -2.19550
H          1.37240       -1.29900       -1.74730
H          2.82100       -1.50670       -0.76510
H          1.20320        0.93900       -1.08290
H          4.42330        1.13510        1.62370
H          4.23510       -0.41870        0.80610
H          2.99980        0.13750        1.95630
H          3.41180        2.12350       -1.90910
H          4.75380        2.20310       -0.69130
H          3.15100        3.13880        1.00740
H          1.81020        3.05410       -0.20730
