18
qm7 5054 -1714.33
C          1.45150       -0.25410       -0.10110
N          2.89000       -0.06930       -0.24410
C          3.33310        1.11310        0.50710
C          4.82720        1.21850        0.32800
O          5.54680        0.01770        0.65940
C          5.40660        2.01190       -0.81290
C          5.54470        2.51010        0.60050
H          1.13560       -1.11970       -0.69120
H          0.89560        0.61810       -0.46010
H          1.18060       -0.44840        0.94140
H          3.10700        0.08150       -1.23020
H          3.11380        0.99050        1.57390
H          2.82860        2.01870        0.14960
H          4.96590       -0.74650        0.47430
H          4.73120        2.53920       -1.47430
H          6.29240        1.62090       -1.29990
H          6.52210        2.45430        1.06560
H          4.96260        3.37500        0.89260
