15
qm7 3865 -1588.99
C          0.95280       -0.00150        0.01290
C          2.47330        0.00820        0.01210
C          3.02740        1.43280        0.00000
C          4.47140        1.43280        0.00000
C          5.66170        1.43280        0.00000
C          7.19360        1.43210        0.00000
C          8.39330        1.43140        0.00000
H          0.58080       -1.03090        0.02120
H          0.55690        0.49540       -0.87840
H          0.55770        0.50950        0.89660
H          2.83580       -0.54390       -0.86400
H          2.83650       -0.52930        0.89700
H          2.65500        1.97840        0.87510
H          2.65500        1.96350       -0.88420
H          9.45800        1.43090        0.00000
