16
qm7 5804 -1646.9
C          1.07800       -0.13040        0.06690
C          2.53930        0.13170       -0.00830
C          3.14420        1.31840        0.21020
C          4.64050        1.16310        0.07210
C          4.85420       -0.30520       -0.23780
N          4.46230       -1.36030        0.69050
C          3.48790       -0.95700       -0.31150
H          0.88380       -1.13310        0.46040
H          0.62810       -0.05790       -0.92720
H          0.57900        0.58430        0.72680
H          2.64960        2.24640        0.45540
H          5.00850        1.78550       -0.74780
H          5.15020        1.44560        0.99790
H          5.60190       -0.53210       -0.98640
H          4.21070       -0.97320        1.60290
H          3.27640       -1.62990       -1.13210
