17
qm7 1451 -1668.82
C          0.58790        0.35630        1.10940
C          1.40290        0.65480       -0.13590
C          2.83400        1.00040        0.23480
N          3.16130        2.23630        0.46640
N          3.80400        0.04440        0.35910
C          3.77160       -1.31600        0.23020
C          4.80850       -2.14690        0.36950
H         -0.44260        0.10780        0.83930
H          0.56680        1.22170        1.77990
H          1.00930       -0.48570        1.66730
H          0.95870        1.50070       -0.67270
H          1.38600       -0.19860       -0.82030
H          2.34640        2.84860        0.35280
H          4.70570        0.44020        0.60630
H          2.79350       -1.72710       -0.00420
H          5.80350       -1.78590        0.60380
H          4.67850       -3.21750        0.24750
