18
qm7 5680 -1719.19
N          2.00290       -0.47200       -1.33380
C          2.30030        0.03470        0.00940
C          3.17330        1.29690       -0.06790
O          4.40160        0.97960       -0.77820
C          2.43290        2.58060       -0.54740
C          3.16190        3.35490        0.56530
C          3.36900        2.01580        1.29650
H          1.64200       -1.42100       -1.25920
H          2.89740       -0.54950       -1.82600
H          2.82940       -0.74070        0.57420
H          1.35850        0.23740        0.53050
H          4.85170        1.83150       -0.90890
H          1.34430        2.55310       -0.42360
H          2.66190        2.91100       -1.56470
H          4.09560        3.82410        0.23540
H          2.56140        4.09690        1.09740
H          4.35060        1.89280        1.76300
H          2.59610        1.79770        2.04290
