17
qm7 3785 -1650.49
O          2.54680       -0.91040        0.81410
C          2.27170        0.02800       -0.22880
C          2.90110        1.38170        0.12400
O          2.36190        1.79960        1.38720
C          4.43290        1.28760        0.22600
C          5.06910        2.64140        0.40420
C          5.98660        3.16280       -0.42090
H          2.09850       -1.73980        0.57080
H          1.18350        0.12650       -0.30060
H          2.66470       -0.36220       -1.17280
H          2.61190        2.12430       -0.62730
H          2.44300        1.01690        1.96780
H          4.83230        0.79910       -0.67080
H          4.71710        0.67520        1.09080
H          4.74950        3.21490        1.27320
H          6.34010        2.62910       -1.29670
H          6.40620        4.14560       -0.22790
