16
qm7 5454 -1499.69
C          1.60500       -0.38470        0.42460
O          3.00730       -0.29750        0.20210
N          3.36260        1.05620        0.13210
C          4.63530        1.20240       -0.09560
C          5.62460        0.06870       -0.21570
C          5.18800        2.61780       -0.12160
O          5.60500        2.99120        1.18090
H          1.32650       -1.44070        0.46500
H          1.06030        0.09250       -0.39560
H          1.34300        0.08660        1.37660
H          5.17600       -0.80550       -0.69310
H          5.97760       -0.20090        0.78310
H          6.47920        0.38130       -0.82100
H          4.42060        3.31830       -0.46510
H          6.04370        2.67660       -0.79930
H          4.80840        2.94830        1.74210
