13
qm7 4158 -1358.28
C          1.05070       -0.01530        0.09030
C          2.53520       -0.00450       -0.02070
N          3.26610       -1.07460       -0.11050
N          4.55980       -0.63500       -0.19100
C          4.71070        0.74180       -0.15520
O          5.74530        1.37970       -0.21070
C          3.31710        1.27680       -0.03250
H          0.67290       -1.04020        0.05400
H          0.62140        0.55670       -0.73620
H          0.75550        0.44480        1.03660
H          5.32990       -1.28860       -0.27060
H          3.04990        1.88160       -0.90070
H          3.18430        1.81630        0.90650
