12
qm7 6647 -1245.87
N          0.88810        0.06870        0.12410
C          2.23630        0.01320        0.06840
C          3.11210        1.07690        0.02330
O          2.67000        2.35200        0.01920
C          4.47430        0.68210       -0.02100
C          4.59890       -0.69050       -0.01610
S          3.07740       -1.47550        0.03910
H          0.43880        0.95770       -0.07840
H          0.34470       -0.75210       -0.11810
H          3.42340        2.96510        0.01180
H          5.32300        1.35200       -0.05660
H          5.50770       -1.27520       -0.04380
