14
qm7 1181 -1492.4
C          1.00210       -0.05410        0.00310
C          2.52000        0.00000        0.00000
C          3.00200        1.36120        0.00000
C          3.39930        2.48310        0.00000
C          3.88130        3.84430        0.00000
C          3.29840        5.16540        0.00000
N          2.83370        6.21840        0.00000
H          0.65740       -1.09390        0.00270
H          0.58470        0.44180       -0.88120
H          0.58840        0.44000        0.89010
H          2.89560       -0.53280       -0.88080
H          2.89920       -0.53410        0.87850
H          4.57160        3.87100       -0.85950
H          4.57160        3.87100        0.85950
