16
qm7 4677 -1605.65
C          0.98690       -0.11900       -0.13160
C          2.50170       -0.04110       -0.10110
N          3.12960       -1.27530       -0.19140
C          3.13760        1.15040       -0.01180
C          2.48640        2.49140        0.18480
C          4.62530        1.21760       -0.12550
O          5.25960        2.25080        0.05490
H          0.52490        0.77500       -0.56030
H          0.59740       -0.27410        0.87950
H          0.65620       -0.95660       -0.75670
H          2.51520       -2.06100        0.02140
H          3.99780       -1.35040        0.33330
H          1.43660        2.42070        0.48070
H          2.54290        3.07860       -0.73740
H          2.98700        3.05070        0.98300
H          5.13990        0.28210       -0.39530
