15
qm7 5513 -1447.01
N          1.16610        0.08950        0.42650
C          2.40960        0.03970        0.08150
C          3.05650       -1.32230       -0.07160
C          4.08710       -1.29870       -1.18870
C          4.90460       -0.01970       -1.10470
O          4.01700        1.09800       -1.23160
N          3.20440        1.15300       -0.08220
H          0.85830        1.05920        0.52150
H          2.29650       -2.08710       -0.26170
H          3.54150       -1.56150        0.88260
H          4.73310       -2.18070       -1.13510
H          3.56050       -1.32420       -2.15100
H          5.47430        0.05090       -0.17020
H          5.61510        0.02660       -1.93580
H          2.70100        2.03490       -0.04640
