19
qm7 1372 -1783.48
C          2.01450       -0.00760        0.61540
C          2.78600       -0.10130       -0.70580
C          2.14430       -1.11600       -1.67370
N          2.11530       -2.47450       -1.13120
C          2.84640        1.26490       -1.35020
C          4.01330        2.17980       -1.07420
N          3.85670        1.53290       -2.37280
H          2.46090        0.74550        1.27280
H          2.01890       -0.96180        1.15120
H          0.97180        0.28330        0.44460
H          3.80550       -0.43940       -0.47430
H          2.70160       -1.13000       -2.61790
H          1.12000       -0.80920       -1.91540
H          3.07090       -2.77680       -0.94190
H          1.75780       -3.10840       -1.84520
H          1.86900        1.70680       -1.51160
H          4.83510        1.81800       -0.46740
H          3.84160        3.24800       -1.03840
H          3.50410        2.19470       -3.06770
