19
qm7 2827 -1851.45
C          2.03680       -0.62900        1.25470
C          2.80070       -0.29890       -0.01920
C          3.26960        1.13000       -0.01670
C          4.53280        1.59720       -0.09350
C          5.76910        0.74670       -0.21500
C          4.80140        3.08230       -0.08500
O          5.56010        3.41590        1.06830
H          1.68550       -1.66570        1.22670
H          1.16120        0.01920        1.37300
H          2.67190       -0.51010        2.13930
H          2.14090       -0.44450       -0.88210
H          3.62130       -1.01080       -0.13010
H          2.45760        1.85570        0.04890
H          5.55900       -0.31670       -0.34140
H          6.39300        0.85400        0.67840
H          6.35650        1.06000       -1.08470
H          3.88020        3.67360       -0.06650
H          5.36690        3.37800       -0.97410
H          5.11260        2.99470        1.82320
