19
qm7 363 -1765.71
C          3.48330       -1.03850       -0.20500
C          2.95420       -0.02840        0.80460
C          3.24020        1.43750        0.42040
C          2.53290        2.37540        1.40730
C          4.74040        1.77270        0.30290
N          5.48920        1.53970        1.53370
H          3.17870       -2.04900        0.08300
H          4.57480       -1.02490       -0.25590
H          3.08530       -0.83750       -1.20490
H          3.37100       -0.25530        1.79240
H          1.86880       -0.16910        0.88670
H          2.79480        1.61790       -0.56710
H          2.85250        2.19610        2.43870
H          1.44820        2.22780        1.36590
H          2.73440        3.42290        1.16260
H          4.85680        2.82360        0.01340
H          5.19220        1.18080       -0.49940
H          5.14750        2.15760        2.26820
H          6.46650        1.79140        1.38600
