19
qm7 3014 -1796.55
C          1.50450       -0.69770       -0.06890
C          3.01100       -0.49520       -0.03660
C          3.38000        0.98250       -0.19500
C          4.89350        1.20540       -0.14390
O          5.54210        0.51640       -1.22050
C          5.25490        2.69180       -0.24600
O          6.67240        2.84160       -0.19830
H          1.26210       -1.75820        0.05080
H          1.08320       -0.35830       -1.02080
H          1.01590       -0.14430        0.73990
H          3.46660       -1.08720       -0.83780
H          3.40440       -0.87520        0.91290
H          2.89650        1.56720        0.59720
H          2.98720        1.34130       -1.15490
H          5.31080        0.79500        0.78340
H          5.08580        0.75580       -2.04640
H          4.81750        3.26870        0.57370
H          4.91620        3.11220       -1.19800
H          7.03860        2.07050       -0.67550
