13
qm7 333 -1360.57
C          1.83430       -0.75820       -1.17500
C          2.46230       -0.23870       -0.11270
C          3.19940        1.07160       -0.12930
C          4.68590        0.88610        0.17340
C          5.38280        2.17870        0.17010
N          5.93210        3.20040        0.16910
H          1.30710       -1.70520       -1.10080
H          1.82220       -0.25630       -2.13810
H          2.43040       -0.77950        0.83190
H          2.74380        1.73340        0.61810
H          3.07680        1.57060       -1.09950
H          5.14170        0.22310       -0.57200
H          4.81470        0.40500        1.15040
