13
qm7 4750 -1386.81
C          2.65040        0.41770        0.85680
C          2.31120        0.10070       -0.62410
C          2.88510        1.42650       -0.84620
C          2.63660        2.66800       -1.31440
N          3.09490        3.55850       -0.35140
C          3.48940        2.82160        0.68080
N          3.46130        1.49710        0.36630
H          3.23040       -0.34700        1.38260
H          1.82940        0.74730        1.50470
H          1.26630       -0.02830       -0.91100
H          2.90920       -0.72750       -1.02220
H          2.06230        3.00600       -2.16570
H          3.80120        3.19210        1.64730
