17
qm7 5187 -1598.08
C          0.75960        2.99470        2.23580
N          1.34450        2.18790        1.19330
C          2.45900        2.55480        0.47430
N          2.79310        3.77300        0.20830
C          3.33790        1.42330       -0.07570
O          3.11780        0.23700        0.69240
C          3.93100       -0.83090        0.22310
H         -0.10200        2.47320        2.66430
H          0.40590        3.95400        1.84620
H          1.48320        3.17670        3.03670
H          1.38020        1.19250        1.42600
H          2.09390        4.40470        0.60150
H          4.38950        1.72640       -0.01600
H          3.05680        1.25090       -1.12020
H          3.76080       -1.69970        0.86440
H          4.99010       -0.56140        0.27460
H          3.65760       -1.09430       -0.80320
