21
qm7 1555 -1921.53
C          1.02500       -0.05190       -0.01440
C          2.54470       -0.03910        0.04130
N          3.03360        1.33840       -0.02360
C          4.50090        1.37280        0.02860
C          5.02300        2.82260       -0.00640
N          6.49040        2.84640        0.03940
C          6.98830        4.21560        0.03570
H          0.65580       -1.08120        0.03420
H          0.65950        0.39380       -0.94540
H          0.59140        0.50130        0.82530
H          2.93600       -0.62090       -0.80100
H          2.87330       -0.51970        0.97020
H          2.65780        1.86690        0.76420
H          4.91000        0.82280       -0.82790
H          4.85480        0.88410        0.94500
H          4.61810        3.37020        0.85390
H          4.66840        3.31690       -0.91940
H          6.85600        2.35720       -0.77800
H          6.64060        4.76520        0.91630
H          6.68190        4.75310       -0.86740
H          8.08270        4.20470        0.06600
