14
qm7 5957 -1458.68
O          1.67470        0.10500        1.38680
C          2.44980       -0.01280        0.44630
C          2.95530       -1.32960       -0.07300
C          3.89280       -0.91810       -1.16090
C          5.11160       -0.08340       -0.86360
N          3.89570        0.53850       -1.38800
C          3.03430        1.14380       -0.34300
H          2.11870       -1.90910       -0.47120
H          3.47340       -1.87830        0.71720
H          3.88990       -1.55580       -2.03430
H          5.39440        0.11340        0.16390
H          5.94420       -0.13710       -1.55630
H          3.60500        1.80430        0.31650
H          2.21910        1.69430       -0.82000
