11
qm7 1108 -1193.68
O          1.20790        0.11470        0.49720
C          2.36650        0.03060        0.12930
C          3.17330       -1.24420       -0.07110
C          4.48960       -0.66270       -0.52010
C          4.43430        0.67000       -0.56360
N          3.20030        1.08970       -0.18690
H          2.72100       -1.86310       -0.84890
H          3.27350       -1.78410        0.87290
H          5.35530       -1.25810       -0.77050
H          5.21040        1.36810       -0.84470
H          2.89230        2.05070       -0.13230
