15
qm7 355 -1472.85
C          1.00000        0.00000        0.00000
C          2.44400        0.00000        0.00000
C          3.63420        0.00000        0.00000
C          5.07810        0.00000        0.00000
C          5.63840        1.42690       -0.00510
N          7.10210        1.43530        0.02450
H          0.60600        1.02090        0.01170
H          0.60590       -0.52050        0.87830
H          0.60590       -0.50030       -0.88990
H          5.45160       -0.54350       -0.87640
H          5.44680       -0.53610        0.88310
H          5.26090        1.98660        0.85920
H          5.30180        1.95740       -0.90360
H          7.42750        1.01520        0.89480
H          7.42910        2.40070        0.03730
