15
qm7 1936 -1543.11
N          0.87720        0.04170       -0.00180
C          2.17050        0.02220        0.02610
C          2.86350       -1.33730        0.04850
C          4.35450       -1.22930        0.02650
C          4.99790       -0.05430       -0.01320
C          4.32880        1.28220       -0.04050
N          2.89120        1.18130        0.04500
H          0.55040        1.00840       -0.00450
H          2.52130       -1.91220       -0.81920
H          2.54540       -1.86710        0.95320
H          4.91840       -2.15740        0.04290
H          6.08500       -0.04890       -0.02990
H          4.69330        1.88500        0.79780
H          4.59960        1.80170       -0.96560
H          2.39210        2.05680       -0.01790
