14
qm7 3929 -1482.36
C          0.89790       -0.00500       -0.00290
C          2.38290        0.00990       -0.00340
C          3.20380        1.12120       -0.00220
O          2.88600        2.41020       -0.00030
N          4.50540        0.68520       -0.00350
C          4.53440       -0.68440       -0.00560
C          3.23360       -1.13180       -0.00560
H          0.48350        1.00800        0.01090
H          0.52300       -0.53590        0.87810
H          0.52250       -0.51230       -0.89740
H          3.69340        2.94890        0.00040
H          5.32410        1.27600       -0.00310
H          5.47380       -1.22070       -0.00690
H          2.92320       -2.16900       -0.00700
