15
qm7 2811 -1561.7
C          0.97680        0.42880        0.27190
C          2.44200        0.29920       -0.14190
C          2.60830       -0.20350       -1.57960
C          2.14610       -1.59310       -1.73630
C          1.76790       -2.72480       -1.87120
C          3.10350        1.65150        0.03120
O          3.68520        2.26230       -0.85960
H          0.89160        0.83680        1.28540
H          0.47080       -0.54160        0.26310
H          0.43450        1.10480       -0.39870
H          2.94800       -0.38510        0.55100
H          3.66510       -0.15400       -1.87130
H          2.06510        0.44740       -2.27590
H          1.43140       -3.72840       -1.99640
H          3.06040        2.06950        1.05250
