17
qm7 1935 -1685.95
N          1.17310        0.05800        0.57180
C          2.36750        0.03670        0.08450
C          3.05900       -1.30400       -0.06590
C          4.06720       -1.29640       -1.20620
C          4.95780       -0.06140       -1.12410
C          4.11310        1.20240       -1.21270
N          3.03550        1.18470       -0.23980
H          0.84830        1.02190        0.65310
H          2.31210       -2.09000       -0.22510
H          3.56580       -1.51650        0.88300
H          4.67820       -2.20480       -1.16630
H          3.53830       -1.30300       -2.16690
H          5.51720       -0.07300       -0.18030
H          5.69180       -0.07400       -1.93740
H          4.74050        2.08310       -1.04150
H          3.68340        1.29670       -2.21670
H          2.48710        2.03580       -0.22140
