10
qm7 155 -1062.9
C          0.87880       -0.13770       -0.12840
C          2.18020        0.05730        0.12530
C          2.87380        1.38980        0.04950
C          3.48350        1.73690        1.34240
N          3.97610        2.01820        2.35570
H          0.44280       -1.13040       -0.05620
H          0.21640        0.67650       -0.40720
H          2.79380       -0.80040        0.39860
H          2.17500        2.17850       -0.25180
H          3.65020        1.33750       -0.72200
