15
qm7 1337 -1503.66
C          0.87760       -0.02890       -0.06110
C          2.35890       -0.32600        0.04200
C          2.80250       -1.75910        0.00410
C          1.97860       -2.80590       -0.12850
N          3.14560        0.70300        0.15520
N          4.49960        0.39630        0.24500
C          5.19810        1.47380        0.36640
H          0.69670        1.04760        0.02070
H          0.33800       -0.52950        0.74800
H          0.49760       -0.37020       -1.02840
H          3.87140       -1.92550        0.09230
H          0.90340       -2.70880       -0.22270
H          2.38350       -3.81350       -0.14640
H          6.29350        1.40970        0.44990
H          4.75150        2.48260        0.39250
