12
qm7 616 -1288.11
C          1.08860        0.04930        0.11820
C          2.39810       -0.02780       -0.12800
C          3.27010       -1.25740       -0.12620
C          4.60640       -0.68450       -0.47970
C          4.46370        0.63150       -0.63850
O          3.17200        1.08520       -0.44150
H          0.57600        1.00480        0.08210
H          0.50710       -0.83360        0.35810
H          2.94560       -1.98020       -0.87980
H          3.29890       -1.72610        0.86220
H          5.52090       -1.24500       -0.58580
H          5.18940        1.38270       -0.89350
