22
Alkene
C 3.4739 -0.8910 -0.4216
C 2.6372 -1.0855 0.6020
C 1.6073 -0.0600 0.9890
C 0.4803 0.0150 -0.0482
C -0.5912 1.0297 0.3771
C -1.7075 1.1664 -0.6691
C -2.5177 -0.0947 -0.8123
C -3.3419 -0.5154 0.1516
H 4.2158 -1.6439 -0.6670
H 3.4286 0.0163 -1.0163
H 2.7232 -1.9945 1.1901
H 1.1788 -0.3454 1.9742
H 2.0955 0.9331 1.1001
H 0.9003 0.3179 -1.0324
H 0.0189 -0.9912 -0.1559
H -0.1144 2.0258 0.5074
H -1.0260 0.7337 1.3569
H -2.3815 2.0022 -0.3804
H -1.2608 1.4261 -1.6532
H -2.4499 -0.6619 -1.7358
H -3.9213 -1.4223 0.0126
H -3.4476 0.0395 1.0788
C=CCCCCC=C