16
Alkene
C -3.0673 0.6763 0.0094
C -2.0829 -0.0541 0.5249
C -0.7356 -0.0418 -0.0667
C 0.2506 -0.7770 0.4535
C 1.6260 -0.7867 -0.1484
C 2.3493 0.5351 0.0954
H -2.9063 1.3010 -0.8606
H -4.0510 0.6530 0.4601
H -2.2849 -0.6660 1.3964
H -0.5437 0.5726 -0.9396
H 0.0603 -1.4096 1.3131
H 1.5606 -0.9859 -1.2401
H 2.2162 -1.6062 0.3149
H 3.3762 0.4784 -0.3231
H 2.4203 0.7397 1.1852
H 1.8123 1.3713 -0.4007
C=CC=CCC