15
Alkene
C 1.7835 -0.7572 0.1075
C 1.2932 0.4138 -0.6942
C 0.1215 1.0350 -0.4707
C -0.8739 0.6164 0.5812
C -1.8269 -0.4449 0.0407
H 1.0768 -1.6078 0.0250
H 2.7712 -1.0837 -0.2798
H 1.9037 -0.4689 1.1727
H 1.9316 0.7886 -1.4891
H -0.1340 1.8871 -1.0941
H -1.4701 1.5064 0.8761
H -0.3639 0.2442 1.4946
H -2.3767 -0.0533 -0.8419
H -1.2723 -1.3597 -0.2537
H -2.5638 -0.7159 0.8258
C/C=C\CC