12
Alkene
C -0.1297 1.4843 -0.1835
C -0.0139 0.1595 -0.0197
C 1.2824 -0.4172 0.4826
C -1.1818 -0.7343 -0.3403
H -1.0561 1.9213 -0.5448
H 0.7005 2.1473 0.0418
H 1.5152 -0.0002 1.4853
H 2.1045 -0.1593 -0.2181
H 1.2295 -1.5226 0.5676
H -2.0505 -0.4590 0.2945
H -1.4612 -0.6181 -1.4089
H -0.9390 -1.8017 -0.1566
C=C(C)C