17
Alkene
C -1.2196 -2.0627 -0.0922
C -1.6260 -0.8018 0.0543
C -0.7069 0.3614 -0.0267
C -1.2233 1.5693 -0.2766
C 0.7588 0.2207 0.1871
C 1.7267 0.9250 -0.7235
C 1.2242 -0.4440 1.2497
H -0.1834 -2.3095 -0.2816
H -1.9397 -2.8692 -0.0441
H -2.6869 -0.6237 0.1886
H -0.5944 2.4497 -0.3229
H -2.2872 1.7018 -0.4323
H 1.2641 1.1048 -1.7170
H 2.6386 0.3091 -0.8786
H 2.0169 1.8994 -0.2773
H 0.5497 -0.9130 1.9553
H 2.2883 -0.5173 1.4378
C=CC(=C)C(C)=C