13
Alkene
C 1.9898 -0.1062 0.2168
C 1.0009 0.2960 -0.5817
C -0.4364 0.1270 -0.2525
C -1.3557 0.5638 -1.1194
C -0.8720 -0.5250 1.0349
H 1.8028 -0.5872 1.1672
H 3.0182 0.0476 -0.0835
H 1.2715 0.7703 -1.5184
H -1.0671 1.0356 -2.0509
H -2.4142 0.4592 -0.9162
H -0.4782 -1.5621 1.0799
H -0.4811 0.0543 1.8975
H -1.9785 -0.5734 1.1264
C=CC(=C)C