26
Alkene
C 3.6971 -0.1701 0.8259
C 3.5772 0.2034 -0.6236
C 2.4282 0.1244 -1.3178
C 1.1201 -0.3363 -0.7278
C 0.5090 0.7325 0.1436
C -0.6136 0.5516 0.8619
C -1.4001 -0.7345 0.8994
C -2.1064 -0.9984 -0.4064
C -3.1710 -0.3026 -0.8431
C -3.7935 0.8307 -0.0803
H 3.4335 -1.2388 0.9696
H 4.7435 -0.0176 1.1633
H 3.0319 0.4671 1.4447
H 4.4696 0.5487 -1.1376
H 2.4414 0.4035 -2.3676
H 1.2770 -1.2728 -0.1523
H 0.4221 -0.5578 -1.5621
H 0.9970 1.7022 0.2052
H -0.9675 1.3761 1.4742
H -2.1452 -0.6905 1.7218
H -0.7185 -1.5798 1.1316
H -1.7423 -1.8167 -1.0209
H -3.6150 -0.5813 -1.7943
H -4.1276 0.4844 0.9200
H -4.6778 1.2090 -0.6345
H -3.0690 1.6633 0.0309
C/C=C\C/C=C\C/C=C\C