12
Alkene
C 1.4462 -0.5587 0.0232
C 0.6900 0.5996 -0.5602
C -0.6260 0.7878 -0.3701
C -1.4784 -0.1404 0.4456
H 2.5138 -0.4945 -0.2741
H 1.0300 -1.5160 -0.3548
H 1.3849 -0.5357 1.1315
H 1.2361 1.3181 -1.1646
H -1.0990 1.6521 -0.8273
H -1.4631 -1.1595 0.0054
H -2.5261 0.2263 0.4539
H -1.1082 -0.1792 1.4916
C/C=C\C