26
Alkene
C -3.7925 0.7111 0.1909
C -3.7132 -0.7774 0.0097
C -2.5850 -1.4875 0.1867
C -1.2620 -0.8796 0.5757
C -0.6187 -0.1771 -0.5937
C 0.5488 0.4805 -0.4994
C 1.3295 0.5869 0.7867
C 2.6192 1.3391 0.5816
C 3.7039 0.8175 -0.0183
C 3.7638 -0.5866 -0.5470
H -3.5295 0.9850 1.2340
H -4.8281 1.0552 -0.0124
H -3.1070 1.2229 -0.5158
H -4.6187 -1.3067 -0.2723
H -2.6273 -2.5639 0.0464
H -1.4023 -0.1776 1.4250
H -0.5879 -1.6952 0.9141
H -1.1130 -0.2002 -1.5619
H 0.9387 0.9562 -1.3960
H 0.7159 1.1401 1.5294
H 1.5405 -0.4218 1.2010
H 2.6740 2.3612 0.9453
H 4.5880 1.4402 -0.1208
H 2.9947 -0.7361 -1.3329
H 3.6053 -1.3136 0.2768
H 4.7630 -0.7731 -0.9929
C/C=C\C/C=C\C/C=C\C