13
Alkene
C -2.2285 -0.7769 0.4918
C -0.9543 -0.4021 0.4221
C -0.3829 0.1160 -0.8371
C 0.8908 0.5074 -0.9658
C 1.8898 0.4675 0.1504
H -2.8809 -0.7128 -0.3704
H -2.6311 -1.1544 1.4228
H -0.3437 -0.4857 1.3121
H -1.0242 0.1857 -1.7084
H 1.2219 0.8744 -1.9299
H 2.0220 -0.5756 0.5073
H 2.8693 0.8437 -0.2123
H 1.5518 1.1127 0.9885
C=CC=CC