22
Alkene
C 1.8132 0.7260 -0.5381
C 3.1798 0.1205 -0.6571
C 0.8235 0.1834 0.1913
C 1.0330 -1.0729 0.9981
C -0.4849 0.8748 0.2246
C -1.6618 0.2964 -0.0821
C -2.9086 1.1366 -0.0265
C -1.7566 -1.1356 -0.5464
H 1.6238 1.6366 -1.0960
H 3.7921 0.7186 -1.3640
H 3.1066 -0.9177 -1.0439
H 3.6860 0.1195 0.3308
H 0.2070 -1.2155 1.7259
H 1.0805 -1.9523 0.3222
H 1.9729 -1.0093 1.5850
H -0.4700 1.9364 0.4473
H -2.8214 1.9873 -0.7353
H -3.8124 0.5504 -0.2939
H -3.0474 1.5334 1.0016
H -2.7617 -1.3609 -0.9595
H -1.5798 -1.8265 0.3023
H -1.0136 -1.3292 -1.3490
C(C)=C(C)C=C(C)C