20
Alkene
C -3.3359 -1.6189 0.7783
C -2.5064 -0.8974 0.0302
C -1.4634 -0.0592 0.6422
C -0.6302 0.6619 -0.1124
C 0.4349 1.5250 0.4988
C 1.4809 0.6955 1.2007
C 2.4087 -0.0412 0.5646
C 2.5208 -0.1245 -0.9302
H -4.0960 -2.2292 0.3081
H -3.2681 -1.6104 1.8593
H -2.6067 -0.9336 -1.0483
H -1.3695 -0.0293 1.7224
H -0.7233 0.6458 -1.1922
H 0.9102 2.1525 -0.2846
H -0.0363 2.2150 1.2316
H 1.4873 0.7036 2.2869
H 3.1227 -0.6009 1.1619
H 3.3777 -0.7756 -1.2022
H 2.6953 0.8840 -1.3596
H 1.5973 -0.5632 -1.3613
C=CC=CCC=CC