16
Alkene
C 2.5419 0.1332 0.2759
C 1.8426 -0.0115 -1.0415
C 0.5202 -0.1785 -1.1666
C -0.4077 -0.2398 -0.0192
C -1.7179 -0.4081 -0.2083
C -2.6608 -0.4709 0.9500
H 2.3820 -0.7748 0.8948
H 2.1622 1.0276 0.8135
H 3.6320 0.2585 0.1076
H 2.4449 0.0213 -1.9414
H 0.1152 -0.2730 -2.1677
H -0.0302 -0.1482 0.9922
H -2.1190 -0.5023 -1.2109
H -2.6133 0.4754 1.5294
H -2.3940 -1.3228 1.6105
H -3.6982 -0.6140 0.5817
CC=CC=CC