18
Alkene
C -1.1534 -1.3565 0.8858
C -0.6329 -0.0477 0.3308
C -1.5559 1.1520 0.3466
C 0.6329 0.0477 -0.1696
C 1.5559 -1.1520 -0.1854
C 1.1534 1.3565 -0.7246
H -0.5254 -1.6841 1.7405
H -2.1971 -1.2648 1.2515
H -1.1415 -2.1364 0.0960
H -1.7272 1.5141 -0.6887
H -1.1111 1.9665 0.9558
H -2.5455 0.9069 0.7847
H 1.7272 -1.5141 0.8498
H 2.5455 -0.9069 -0.6236
H 1.1111 -1.9665 -0.7946
H 1.1415 2.1364 0.0652
H 0.5254 1.6841 -1.5793
H 2.1971 1.2648 -1.0904
CC(C)=C(C)C