15
Alkene
C -0.8044 0.6391 -0.1772
C -2.0023 -0.0660 0.3920
C 0.4432 0.1262 -0.1429
C 0.7257 -1.2190 0.4829
C 1.5708 0.9231 -0.7456
H -0.9670 1.6111 -0.6367
H -1.8665 -0.2332 1.4811
H -2.9083 0.5574 0.2410
H -2.1537 -1.0387 -0.1211
H 1.8027 -1.4792 0.4206
H 0.4378 -1.2061 1.5550
H 0.1512 -2.0099 -0.0436
H 2.5422 0.3942 -0.6538
H 1.3713 1.0993 -1.8239
H 1.6573 1.9018 -0.2278
C(C)=C(C)C