16
Alkyne
C -2.4882 -0.9994 -0.1336
C -2.0853 0.4574 -0.3241
C -0.6493 0.6295 -0.0805
C 0.5314 0.7692 0.1200
C 1.9677 0.9370 0.3645
C 2.6059 -0.3967 0.7320
H -1.9364 -1.6497 -0.8462
H -2.2722 -1.3277 0.9060
H -3.5768 -1.1107 -0.3218
H -2.3184 0.7762 -1.3619
H -2.6530 1.0970 0.3841
H 2.1129 1.6610 1.1938
H 2.4475 1.3400 -0.5523
H 3.6916 -0.2507 0.9132
H 2.4793 -1.1273 -0.0959
H 2.1435 -0.8051 1.6563
CCC#CCC