17
CarboxylicAcid
C -1.8776 -0.8752 0.5114
C -0.6556 0.0136 0.7453
C 0.0577 0.3831 -0.5708
C 1.1278 1.4087 -0.3245
O 2.0428 1.1897 0.5155
O 1.1181 2.6020 -1.0403
C 0.6624 -0.8238 -1.2345
O 0.3752 -1.0939 -2.4315
O 1.5507 -1.6373 -0.5359
H -2.5986 -0.3708 -0.1664
H -2.3821 -1.0738 1.4804
H -1.5748 -1.8473 0.0681
H -0.9983 0.9444 1.2489
H 0.0458 -0.5056 1.4350
H -0.6941 0.8334 -1.2577
H 1.8344 3.3028 -0.8919
H 1.9662 -2.4500 -0.9750
CCC(C(=O)O)(C(=O)O)