20
CarboxylicAcid
C -3.3738 -0.3896 -0.7981
C -2.7451 0.4705 0.2915
C -1.3559 0.8702 -0.0910
O -1.1619 1.9564 -0.7024
O -0.2905 0.0121 0.1952
C 1.0545 0.3129 -0.1620
C 1.9656 -0.8238 0.2904
C 3.3881 -0.5327 -0.0686
O 3.8484 -0.9071 -1.1803
O 4.1899 0.1905 0.8087
H -4.4020 -0.6797 -0.4955
H -2.7753 -1.3127 -0.9545
H -3.4305 0.1772 -1.7522
H -3.3678 1.3770 0.4536
H -2.7142 -0.1033 1.2424
H 1.1261 0.4336 -1.2656
H 1.3650 1.2609 0.3305
H 1.6449 -1.7730 -0.1917
H 1.8839 -0.9493 1.3916
H 5.1506 0.4099 0.5736
CCC(=O)OCCC(=O)O