20
CarboxylicAcid
C -3.5031 0.1379 1.0224
O -3.5175 1.3010 1.5073
O -2.5657 -0.2277 0.0540
C -1.5810 0.6757 -0.4403
C -0.7020 -0.0198 -1.4839
C 0.0730 -1.2163 -0.9136
C 1.1034 -0.7844 0.0840
O 0.8854 -0.9505 1.3152
O 2.2810 -0.1757 -0.3706
C 3.3110 0.2932 0.4539
O 3.2422 0.1943 1.7091
O 4.4290 0.8790 -0.1290
H -4.2278 -0.5896 1.3611
H -2.0852 1.5438 -0.9178
H -0.9561 1.0526 0.3982
H -1.3498 -0.3767 -2.3139
H 0.0118 0.7179 -1.9117
H 0.5896 -1.7375 -1.7477
H -0.6284 -1.9451 -0.4521
H 5.1902 1.2279 0.4413
C(=O)OCCCC(=O)OC(=O)O