17
CarboxylicAcid
C 3.2134 -0.3057 0.3807
C 1.8261 -0.6073 -0.0740
O 1.6441 -1.1759 -1.1848
O 0.7411 -0.2224 0.7216
C -0.6198 -0.4100 0.3377
C -1.0316 0.6319 -0.7036
C -2.4739 0.4705 -1.0650
O -2.8067 -0.2961 -2.0081
O -3.4510 1.1343 -0.3299
H 3.8916 -1.1444 0.1164
H 3.5697 0.6233 -0.1107
H 3.2300 -0.1648 1.4818
H -1.2552 -0.2930 1.2418
H -0.7677 -1.4398 -0.0565
H -0.8691 1.6511 -0.2917
H -0.4079 0.5256 -1.6169
H -4.4331 1.0229 -0.5518
CC(=O)OCCC(=O)O