17
CarboxylicAcid
C -3.1987 0.5337 0.0438
O -3.9087 -0.5074 0.0505
O -1.8080 0.4570 -0.0577
C -1.1132 -0.7829 -0.1585
C 0.3924 -0.5361 -0.2557
C 0.9462 0.0962 1.0257
C 2.4221 0.3090 0.9074
O 3.2220 -0.5922 1.2761
O 2.9096 1.4862 0.3486
H -3.6729 1.5026 0.1180
H -1.3368 -1.4163 0.7280
H -1.4496 -1.3202 -1.0718
H 0.5971 0.1288 -1.1238
H 0.9004 -1.5090 -0.4359
H 0.4553 1.0762 1.2091
H 0.7371 -0.5647 1.8953
H 3.9058 1.6390 0.2465
C(=O)OCCCC(=O)O