14
CarboxylicAcid
C -1.5972 1.5523 0.2959
O -1.5603 1.9717 -0.8918
O -1.3007 0.2208 0.6034
C -0.8923 -0.7386 -0.3717
C 0.5608 -0.5128 -0.7979
C 1.4899 -0.6411 0.3685
O 1.9284 -1.7734 0.7051
O 1.8359 0.4867 1.1062
H -1.8697 2.2317 1.0916
H -1.5599 -0.6880 -1.2594
H -0.9926 -1.7554 0.0650
H 0.6727 0.4946 -1.2517
H 0.8343 -1.2628 -1.5713
H 2.4507 0.4144 1.9080
C(=O)OCCC(=O)O