11
CarboxylicAcid
C -1.7414 -0.5887 0.7088
O -1.2425 -0.3926 1.8492
O -1.2123 0.0294 -0.4285
C -0.0773 0.8915 -0.3929
C 1.1701 0.1010 -0.1580
O 1.7867 0.2009 0.9363
O 1.6370 -0.7620 -1.1440
H -2.5958 -1.2436 0.6073
H 0.0090 1.4075 -1.3717
H -0.2092 1.6679 0.3925
H 2.4757 -1.3113 -0.9988
C(=O)OCC(=O)O