14
CarboxylicAcid
C 0.3122 -1.2715 -0.8853
C -0.0953 -0.3919 0.3000
C -1.2153 0.5353 -0.0770
O -1.0850 1.3378 -1.0412
O -2.4008 0.5169 0.6514
C 1.0778 0.3954 0.8103
O 1.4057 0.3208 2.0249
O 1.7961 1.2216 -0.0503
H 0.6806 -0.6541 -1.7329
H -0.5577 -1.8701 -1.2312
H 1.1172 -1.9735 -0.5786
H -0.4550 -1.0653 1.1099
H -3.1656 1.1377 0.4149
H 2.5851 1.7610 0.2851
CC(C(=O)O)(C(=O)O)