14
CarboxylicAcid
C -0.2040 -0.0867 -0.7707
C 0.3302 1.3030 -0.5743
O 0.3097 2.1252 -1.5293
O 0.8384 1.6939 0.6621
C 0.8483 -1.1059 -0.4404
O 1.3140 -1.8456 -1.3485
O 1.3227 -1.2315 0.8630
C -1.4281 -0.3032 0.0718
O -2.5099 -0.6562 -0.4702
O -1.3730 -0.1276 1.4523
H -0.4874 -0.2071 -1.8415
H 1.1967 2.6307 0.8042
H 2.0354 -1.9134 1.0933
H -2.1931 -0.2757 2.0282
C(C(=O)O)(C(=O)O)C(=O)O