17
CarboxylicAcid
C 0.6332 1.4013 0.8859
C 0.0434 0.1464 0.2058
C -0.8803 0.5530 -0.9259
O -1.5370 1.6284 -0.8634
O -1.0776 -0.3023 -2.0084
C 1.1974 -0.6692 -0.3412
O 1.6290 -1.6780 0.2822
O 1.8421 -0.2613 -1.5069
C -0.7600 -0.6803 1.1924
O -0.6425 -0.5012 2.4358
O -1.5959 -1.6929 0.7264
H 1.1619 2.0368 0.1422
H -0.1684 2.0094 1.3589
H 1.3618 1.1145 1.6756
H -1.7143 -0.0559 -2.7567
H 2.6314 -0.7799 -1.8734
H -2.1244 -2.2688 1.3707
CC(C(=O)O)(C(=O)O)C(=O)O