20
CarboxylicAcid
C 3.8826 0.0037 0.2601
C 2.5251 0.2703 -0.2951
O 2.0708 -0.4662 -1.2125
O 1.7542 1.3097 0.2379
C 0.4292 1.6043 -0.1983
C -0.5218 0.5548 0.2797
O -0.8408 0.5109 1.4991
O -1.0191 -0.3896 -0.6254
C -1.9278 -1.4238 -0.2561
C -3.2847 -0.8541 0.0087
O -3.7497 -0.8433 1.1797
O -4.0248 -0.3168 -1.0394
H 4.2803 0.9189 0.7466
H 4.5746 -0.2990 -0.5540
H 3.8212 -0.8108 1.0113
H 0.1244 2.5862 0.2209
H 0.3981 1.6814 -1.3068
H -1.5456 -1.9705 0.6338
H -2.0041 -2.1470 -1.0945
H -4.9422 0.0808 -0.8771
CC(=O)OCC(=O)OCC(=O)O