17
CarboxylicAcid
C 1.5011 1.0149 -0.0114
C 1.4125 -0.5007 0.1612
C 0.2067 -1.1244 -0.5644
C -1.1335 -0.9168 0.1625
C -1.7070 0.4487 -0.0620
O -1.9986 0.8299 -1.2274
O -1.9393 1.2897 1.0219
H 0.7039 1.5237 0.5660
H 2.4796 1.3722 0.3732
H 1.4217 1.2929 -1.0838
H 1.3880 -0.7538 1.2433
H 2.3388 -0.9464 -0.2623
H 0.3861 -2.2202 -0.6218
H 0.1492 -0.7587 -1.6132
H -1.0136 -1.1050 1.2513
H -1.8653 -1.6605 -0.2203
H -2.3303 2.2144 0.8873
CCCCC(=O)O