20
CarboxylicAcid
C 3.5195 0.6351 -0.8254
C 2.0415 0.6659 -0.6332
O 1.5046 1.6684 -0.0882
O 1.2723 -0.4347 -1.0273
C -0.1366 -0.5207 -0.8226
C -0.4468 -0.8407 0.6452
C -1.9467 -1.0467 0.8909
C -2.7124 0.2315 0.7369
O -3.3834 0.4450 -0.3082
O -2.6579 1.1963 1.7378
H 3.7842 -0.0943 -1.6193
H 3.8856 1.6398 -1.1251
H 4.0094 0.3340 0.1238
H -0.6234 0.4291 -1.1339
H -0.5316 -1.3362 -1.4651
H 0.0876 -1.7747 0.9244
H -0.0686 -0.0274 1.3018
H -2.0925 -1.4210 1.9268
H -2.3451 -1.8197 0.1976
H -3.1599 2.0711 1.6438
CC(=O)OCCCC(=O)O