17
CarboxylicAcid
C -2.5962 1.2581 0.6909
O -3.5165 1.4534 -0.1475
O -1.5997 0.3075 0.4590
C -1.5593 -0.4897 -0.7217
C -0.3549 -1.4272 -0.6801
C 0.9269 -0.6543 -0.6775
O 1.4549 -0.3232 -1.7740
O 1.4936 -0.2748 0.5469
C 2.6737 0.4653 0.6892
O 3.3317 0.8491 -0.3156
O 3.1238 0.7796 1.9664
H -2.5767 1.8353 1.6050
H -1.4981 0.1649 -1.6192
H -2.4875 -1.0979 -0.7883
H -0.4081 -2.0614 0.2309
H -0.3816 -2.0984 -1.5658
H 3.9740 1.3137 2.1014
C(=O)OCCC(=O)OC(=O)O