15
Cyano
C 1.7424 0.2411 -0.4926
C 0.8409 -0.0599 0.7043
C -0.4150 -0.8630 0.3194
C -1.4229 -0.0780 -0.5333
C -1.9878 1.0594 0.2045
N -2.4328 1.9558 0.7857
H 2.6885 0.6996 -0.1351
H 1.9883 -0.6935 -1.0401
H 1.2529 0.9580 -1.1834
H 0.5580 0.8904 1.2057
H 1.4254 -0.6588 1.4360
H -0.9193 -1.2036 1.2507
H -0.1097 -1.7770 -0.2352
H -2.2561 -0.7552 -0.8166
H -0.9528 0.2848 -1.4700
CCCCC#N