12
Cyano
C -1.5949 0.1627 -0.0983
C -0.1963 0.2262 0.5086
C 0.8549 -0.2956 -0.4736
C 2.1925 -0.2277 0.1251
N 3.2478 -0.1742 0.5970
H -2.3359 0.5465 0.6343
H -1.6463 0.7872 -1.0157
H -1.8578 -0.8862 -0.3530
H -0.1797 -0.3856 1.4375
H 0.0311 1.2815 0.7773
H 0.6367 -1.3521 -0.7391
H 0.8478 0.3172 -1.4002
CCCC#N