14
Fluoro
C 1.5732 0.5123 -0.0268
C 0.6341 -0.6276 -0.4187
C -0.6263 -0.6960 0.4586
C -1.6004 0.4582 0.2078
F -1.1353 1.6241 0.7881
H 1.1233 1.4946 -0.2790
H 1.8015 0.4741 1.0596
H 2.5248 0.4161 -0.5909
H 1.1872 -1.5856 -0.3087
H 0.3513 -0.5261 -1.4890
H -0.3464 -0.7258 1.5342
H -1.1529 -1.6474 0.2271
H -1.7512 0.6172 -0.8811
H -2.5829 0.2119 0.6631
CCCCF