29
Fluoro
C -4.5683 -0.0857 -0.4699
C -3.0545 0.1068 -0.4695
C -2.4849 0.0065 0.9530
C -0.9819 0.3221 1.0106
C -0.1240 -0.7633 0.3360
C 1.3762 -0.6008 0.6295
C 1.9899 0.6130 -0.0895
C 3.4927 0.7671 0.1934
C 4.3426 -0.2811 -0.5266
F 5.6828 0.0070 -0.3443
H -4.9515 -0.0180 -1.5100
H -5.0583 0.7027 0.1404
H -4.8302 -1.0840 -0.0590
H -2.8198 1.1043 -0.9006
H -2.6020 -0.6740 -1.1168
H -3.0135 0.7370 1.6041
H -2.6730 -1.0090 1.3657
H -0.7978 1.3090 0.5352
H -0.6908 0.4017 2.0808
H -0.4395 -1.7601 0.7150
H -0.2859 -0.7526 -0.7631
H 1.5386 -0.5157 1.7263
H 1.8851 -1.5255 0.2851
H 1.8188 0.5342 -1.1856
H 1.4879 1.5378 0.2645
H 3.8120 1.7730 -0.1564
H 3.6833 0.7164 1.2876
H 4.1440 -1.2937 -0.1196
H 4.1220 -0.2752 -1.6152
CCCCCCCCCF