16
Nitro
C -2.3062 -0.1711 -0.4891
C -1.1299 -0.1534 0.4827
C 0.1979 0.0376 -0.2589
C 1.3763 0.0550 0.7176
N 2.6266 0.2420 -0.0078
O 3.2176 -0.7425 -0.4966
O 3.0405 1.5111 -0.3387
H -2.3622 0.7893 -1.0447
H -2.1971 -1.0076 -1.2118
H -3.2524 -0.3105 0.0751
H -1.2763 0.6755 1.2092
H -1.1119 -1.1137 1.0428
H 0.1745 0.9981 -0.8195
H 0.3389 -0.7922 -0.9860
H 1.2495 0.8840 1.4477
H 1.4144 -0.9017 1.2838
CCCC[N+](=O)[O-]