13
Nitro
C 1.2478 0.3316 0.6209
C 0.6925 -0.4256 -0.5838
C -0.8177 -0.6641 -0.4728
N -1.5536 0.5942 -0.5320
O -1.7121 1.1768 -1.6243
O -1.9668 1.2056 0.6286
H 0.8135 1.3521 0.6736
H 2.3500 0.4248 0.5234
H 1.0201 -0.2153 1.5605
H 0.9170 0.1413 -1.5134
H 1.2049 -1.4095 -0.6521
H -1.1438 -1.3176 -1.3109
H -1.0518 -1.1944 0.4760
CCC[N+](=O)[O-]